90
frame 11 | Written by MDAnalysis XYZWriter (release 2.4.3)
       H    -9.64785  -18.50085   -4.01962
       O    -9.29469  -18.13073   -4.80485
      H1    -8.45556  -18.53210   -5.04898
       H   -14.34478  -13.40602   -1.30173
       O   -14.47498  -14.34962   -1.55142
      H1   -15.44027  -14.38137   -1.47947
       H   -18.25751  -20.09899   -4.59777
       O   -17.98759  -19.17169   -4.71850
      H1   -18.90342  -18.74785   -4.90433
       H   -12.18341  -19.60756   -8.63988
       O   -12.51270  -19.40628   -7.70250
      H1   -13.40419  -19.08090   -7.85696
       H   -17.84088  -16.13043   -7.12362
       O   -16.94507  -15.86474   -6.98223
      H1   -16.55143  -16.62759   -6.54246
       H   -17.37789  -14.21578   -3.62696
       O   -17.88865  -13.63206   -3.09813
      H1   -18.24237  -14.22449   -2.44990
       H   -17.53963  -18.90926    0.58375
       O   -16.74057  -18.32632    0.43143
      H1   -16.63595  -18.02277    1.30429
       H   -10.55803  -18.90919   -0.43699
       O   -11.31051  -18.66335    0.08236
      H1   -10.95528  -18.23251    0.80640
       H   -15.49607  -17.98512    3.93220
       O   -15.21813  -17.99615    3.02365
      H1   -15.12315  -18.93436    2.77279
       H   -15.97454  -18.71647   -5.25188
       O   -15.48406  -18.36513   -6.07407
      H1   -14.73423  -17.80328   -5.73294
       H    -8.92735  -16.42728   -4.84754
       O    -8.79652  -15.45234   -4.79990
      H1    -9.39312  -15.10593   -4.15688
       H    -6.61092  -18.12473   -4.07510
       O    -6.77262  -17.65033   -3.27929
      H1    -6.65058  -16.72157   -3.44627
       H   -12.38478  -11.84474   -4.44215
       O   -12.11511  -12.60870   -4.98346
      H1   -12.95147  -13.16008   -4.76018
       H   -17.49577  -15.11326    0.20460
       O   -17.10390  -15.64058   -0.53782
      H1   -16.96639  -16.51422   -0.15920
       H   -16.52762  -14.00775   -6.57712
       O   -16.15247  -13.22832   -6.20468
      H1   -16.88421  -12.57625   -6.16049
       H   -14.84797  -13.55994   -4.62828
       O   -14.19685  -14.10500   -4.16366
      H1   -14.38777  -13.96419   -3.26095
       H   -14.63458  -17.07963   -1.17950
       O   -14.91321  -17.41304   -2.02915
      H1   -15.15552  -18.31357   -1.85397
       H   -18.24776  -17.63984   -1.51622
       O   -18.85730  -18.08060   -2.07235
      H1   -18.38359  -18.42375   -2.81025
       H   -11.56431  -14.37414   -8.44355
       O   -11.55504  -14.42812   -7.47159
      H1   -11.09919  -15.30813   -7.19799
       H    -8.89385  -16.68463   -0.08745
       O    -9.12449  -15.88866    0.37257
      H1    -9.90712  -15.57692   -0.03939
       H   -11.27359  -17.82101   -7.69936
       O   -10.66598  -17.19715   -7.36762
      H1   -10.25433  -17.65130   -6.63706
       H   -13.23269  -18.34875   -3.11485
       O   -12.39192  -18.29951   -3.60258
      H1   -12.51176  -17.73345   -4.32802
       H    -8.10128  -19.09976   -0.62739
       O    -8.41994  -18.26105   -0.96911
      H1    -7.86199  -18.06385   -1.74212
       H   -15.56398  -15.76469   -8.20351
       O   -15.17417  -15.70211   -9.07628
      H1   -15.33544  -16.54478   -9.50603
       H   -12.10460  -16.24255   -1.00219
       O   -11.56785  -15.96248   -1.76850
      H1   -11.94612  -16.58346   -2.39946
       H   -13.75473  -16.79353    3.21905
       O   -13.06864  -16.26056    3.53564
      H1   -13.33692  -15.85082    4.36115
       H   -15.53949  -15.45861   -4.10302
       O   -16.42445  -15.95008   -3.98889
      H1   -16.11637  -16.65053   -3.42178
       H   -11.00938  -13.58227   -3.61163
       O   -10.33954  -13.79707   -2.91980
      H1   -10.69085  -14.62798   -2.47874
       H   -13.89452  -15.47628   -0.10414
       O   -13.58632  -16.29099    0.34895
      H1   -13.55023  -15.91011    1.21010
       H   -13.44080  -15.74549   -5.14112
       O   -13.09239  -16.54803   -5.59658
      H1   -12.81565  -16.25358   -6.51237

