90
frame 11 | Written by MDAnalysis XYZWriter (release 2.4.3)
       H    14.84328   -7.97150    3.76990
       O    14.18331   -7.30705    3.48441
      H1    14.59068   -6.65403    2.90336
       H    14.26109   -7.59148    9.71792
       O    13.57275   -7.49723    9.05126
      H1    13.31220   -6.54924    8.94584
       H    10.00865   -4.99793    4.15944
       O    10.08608   -4.03188    4.12154
      H1    11.02956   -3.82331    3.98304
       H    10.72376   -4.33341    5.97934
       O    10.57698   -4.52563    6.96605
      H1    11.45283   -4.67178    7.37526
       H    19.10771   -6.04123    6.91929
       O    18.62004   -5.25225    6.59220
      H1    17.74305   -5.52411    6.27823
       H    16.97060   -2.42863   10.89237
       O    16.21696   -2.12858   10.36398
      H1    15.84840   -2.86171    9.87596
       H    14.61397   -1.59774   10.81024
       O    13.75335   -1.25340   11.18876
      H1    13.57141   -0.49154   10.61084
       H    13.14501   -3.79377    2.30413
       O    12.67594   -4.34454    2.94179
      H1    13.28657   -4.57454    3.68408
       H    11.65187   -5.98331    2.46290
       O    10.96873   -6.66247    2.27195
      H1    11.49115   -7.57510    2.20370
       H    14.53090    3.47946    4.91150
       O    14.90538    2.72597    4.36076
      H1    14.22361    2.07158    4.47768
       H    15.75724   -3.92388    3.06015
       O    16.07285   -4.54425    3.80090
      H1    16.06553   -4.00238    4.59745
       H    13.71924   -2.84177    6.51970
       O    14.50819   -3.13491    6.04189
      H1    14.52578   -2.47514    5.32264
       H    16.04374   -4.62881    8.86017
       O    15.31605   -4.41474    9.43082
      H1    15.59510   -4.69636   10.30258
       H    17.34499   -0.75528    9.03770
       O    17.75249    0.10744    8.90470
      H1    18.51118    0.16645    9.58415
       H    16.74317   -3.53997    1.06133
       O    15.72863   -3.45200    1.20402
      H1    15.36194   -3.22708    0.30321
       H    16.90475   -0.13208    4.97700
       O    16.38193    0.35524    4.33465
      H1    16.46989    1.30622    4.38907
       H    18.99007   -5.19278    2.70817
       O    18.16760   -5.58139    2.32336
      H1    17.47479   -5.28841    2.98163
       H    15.30877   -5.27873    6.19617
       O    15.84764   -5.80007    6.75535
      H1    15.92159   -6.71558    6.47907
       H    10.57274   -1.29247    3.29571
       O    11.46859   -1.42850    2.92343
      H1    11.92942   -0.57846    2.93742
       H    13.89390   -6.24356    6.24426
       O    13.29938   -5.92292    5.51661
      H1    13.47886   -6.44439    4.70621
       H    18.84922   -3.28031    6.70664
       O    19.05239   -2.36546    6.82605
      H1    19.64912   -2.06747    6.15281
       H     9.98245   -2.71490    7.20975
       O     9.65102   -1.79385    7.23404
      H1     8.88124   -1.83769    6.68098
       H    13.83334   -1.24638   -0.32569
       O    14.45988   -0.72341    0.19496
      H1    14.23544   -0.95610    1.13913
       H    12.85137   -2.00183    8.46767
       O    12.46526   -1.28844    7.82553
      H1    11.56257   -1.44025    7.89970
       H    15.08914   -0.81988    4.03810
       O    14.56878   -1.61466    3.87100
      H1    13.65734   -1.26671    3.93661
       H    10.43576   -6.23887    7.41309
       O    10.12712   -7.17254    7.41868
      H1    10.33965   -7.58111    8.28034
       H    12.36605    1.79655    3.48111
       O    12.67445    1.03061    3.94174
      H1    11.91651    0.76499    4.46873
       H    12.28795   -4.41749    9.50139
       O    12.74591   -4.38712    8.66035
      H1    13.75101   -4.48288    8.89389
       H    12.62045    1.86868    9.78768
       O    13.13362    1.17957    9.37645
      H1    12.67596    0.55998    8.79183
       H    10.63254   -0.56566    5.94509
       O    10.58295    0.24160    5.39172
      H1     9.85145   -0.05890    4.80696

