90
frame 10 | Written by MDAnalysis XYZWriter (release 2.4.3)
       H    -2.56933   16.90715   -1.30213
       O    -2.90654   17.09071   -0.38394
      H1    -2.50816   17.88493    0.00994
       H    -4.18075   13.52840  -10.43675
       O    -4.17443   12.60774  -10.70737
      H1    -3.96685   12.56811  -11.64483
       H     0.43037   14.03032   -1.49812
       O    -0.38191   13.66587   -1.89812
      H1    -0.96378   14.44577   -1.97443
       H    -1.80526   18.45192   -3.92706
       O    -0.86323   18.30681   -3.88120
      H1    -0.61579   18.17691   -4.78939
       H    -1.79936   18.42509   -9.31674
       O    -1.72461   18.05073   -8.43978
      H1    -2.57281   17.60207   -8.36879
       H    -2.02216   15.41419   -3.55814
       O    -1.90492   15.91988   -2.76351
      H1    -1.39122   16.70707   -2.98319
       H    -6.60840   14.11070  -10.88440
       O    -7.17501   14.74528  -10.45533
      H1    -6.70064   14.98930   -9.67560
       H     0.67448   14.35217   -6.05636
       O     0.24822   14.84033   -6.77066
      H1     0.40414   14.40015   -7.58017
       H    -5.45378   10.95905   -8.56917
       O    -4.99548   11.48670   -7.88033
      H1    -4.82081   12.32331   -8.26430
       H     1.93501   10.66887   -5.32471
       O     1.82915   11.18530   -6.13468
      H1     0.88739   11.34370   -5.96315
       H    -0.47441   11.89916   -2.54726
       O    -0.89849   11.24498   -3.17274
      H1    -1.85250   11.20007   -2.88913
       H    -7.84960   18.02194   -6.93761
       O    -8.11506   17.13612   -7.11863
      H1    -7.37515   16.49982   -7.31523
       H    -3.79317   15.72318   -5.43006
       O    -4.66434   15.94611   -5.14229
      H1    -4.62271   15.95600   -4.17764
       H    -4.50945   12.25158   -2.86363
       O    -4.75119   13.12341   -3.14985
      H1    -5.45265   13.09271   -3.74540
       H    -4.69020   15.89608   -9.60219
       O    -4.19399   15.16614   -9.89089
      H1    -3.62743   15.39360  -10.64059
       H    -1.61611   11.06218   -6.35377
       O    -1.17649   11.89905   -6.25923
      H1    -1.42560   12.33112   -7.11610
       H    -6.38676   14.50176   -7.43851
       O    -6.10615   15.36354   -7.78157
      H1    -5.44720   15.61125   -7.10743
       H    -3.44028   10.43349   -7.78818
       O    -2.69071    9.74330   -7.64853
      H1    -3.03131    9.07604   -7.09018
       H     0.65055   13.23402   -9.73701
       O     1.30117   13.56556   -9.08890
      H1     1.98156   13.87339   -9.76508
       H     2.00516   17.84357   -7.50763
       O     2.65749   17.86466   -8.22322
      H1     3.12443   18.60797   -7.94335
       H    -4.43298   17.26241   -1.62448
       O    -4.97555   17.46567   -2.38542
      H1    -5.70598   16.88350   -2.56161
       H     1.30946   13.63248   -3.85563
       O     1.71812   13.65079   -4.71126
      H1     2.32950   12.89204   -4.70775
       H    -3.76583   19.23471   -4.68079
       O    -3.40434   18.49433   -5.20951
      H1    -3.96292   17.74661   -4.96709
       H    -2.52908   14.70822   -5.73267
       O    -2.33580   15.36105   -6.44910
      H1    -1.42241   15.13805   -6.65786
       H    -2.21260   15.29241  -12.49973
       O    -2.57961   15.84753  -11.76794
      H1    -2.00013   15.68089  -11.02478
       H    -3.34722   13.59134   -3.80794
       O    -2.50140   13.76090   -4.28356
      H1    -1.96118   12.94127   -4.28482
       H    -1.87056   12.86017   -9.68084
       O    -2.01908   13.20758   -8.75782
      H1    -2.52580   14.03269   -8.90779
       H    -0.79560   14.92261   -9.11648
       O    -0.85844   15.67126   -9.71143
      H1    -0.92809   16.42738   -9.13138
       H    -4.92795   18.81112   -8.62606
       O    -4.53666   17.98619   -8.26041
      H1    -4.16041   18.32243   -7.46088
       H     0.47668   16.43419   -6.39882
       O     0.51115   17.43568   -6.44036
      H1    -0.08349   17.69785   -7.15259

