90
frame 11 | Written by MDAnalysis XYZWriter (release 2.4.3)
       H   -12.63278   -6.05475  -19.31070
       O   -13.39711   -6.67438  -19.20048
      H1   -14.03492   -6.38281  -18.53331
       H   -12.07731  -12.91444  -17.82420
       O   -12.33900  -12.85732  -16.90951
      H1   -11.96593  -11.98402  -16.71384
       H    -9.57857  -12.28550  -18.57870
       O   -10.38169  -12.27458  -19.15439
      H1   -10.06064  -11.92436  -20.00288
       H   -17.32438   -8.01214  -14.60537
       O   -17.80699   -7.23608  -14.82740
      H1   -17.71926   -6.65857  -14.06632
       H   -13.54656  -17.37048  -18.82171
       O   -14.37295  -17.80993  -18.76849
      H1   -15.06244  -17.10604  -18.67446
       H   -14.49069   -9.40176  -13.85878
       O   -13.73542   -8.78994  -13.75821
      H1   -13.05935   -9.34653  -13.34127
       H   -13.04992  -15.35445  -14.60287
       O   -12.10252  -15.11525  -14.80108
      H1   -12.03305  -14.56095  -15.56020
       H   -17.82562  -14.12017  -15.45095
       O   -17.01253  -14.69613  -15.50934
      H1   -16.91734  -15.08796  -14.62627
       H   -15.00628   -9.66269  -17.29186
       O   -15.70798  -10.34703  -17.18969
      H1   -15.25727  -11.07945  -16.73414
       H   -18.63637   -6.61096  -16.45098
       O   -19.41347   -6.42751  -17.06295
      H1   -20.01373   -7.16169  -16.90991
       H   -18.36385  -11.83765  -17.99972
       O   -18.14450  -10.97155  -18.43561
      H1   -17.31798  -10.78955  -18.03636
       H   -14.99446  -12.94648  -12.76292
       O   -15.53079  -12.39551  -13.26409
      H1   -15.14211  -12.42386  -14.17036
       H   -15.49077  -13.42012  -16.17859
       O   -14.92615  -12.67098  -16.02279
      H1   -14.09315  -12.90413  -16.41872
       H   -14.36040  -18.42587  -16.97861
       O   -14.60909  -18.35979  -16.03839
      H1   -14.39569  -19.22544  -15.72921
       H   -17.43037  -17.31109  -18.49174
       O   -17.56718  -16.91507  -19.32751
      H1   -17.09480  -16.08397  -19.20513
       H   -12.32627   -9.19930  -19.46219
       O   -12.30820   -9.59548  -18.58207
      H1   -11.63899  -10.28842  -18.66384
       H   -18.96009  -13.49527  -19.28760
       O   -18.37777  -13.86925  -18.62076
      H1   -18.92706  -14.53031  -18.22869
       H   -15.04161  -11.09018  -10.64120
       O   -15.80066  -10.65937  -11.12727
      H1   -15.68399  -11.04632  -11.99751
       H   -15.20662  -13.74602  -18.92196
       O   -15.82353  -14.44688  -19.18129
      H1   -16.67053  -14.20563  -18.72269
       H   -15.14927   -5.42232  -16.75574
       O   -15.41197   -6.26233  -17.14450
      H1   -15.02092   -6.92130  -16.57724
       H   -17.25903  -16.53116  -16.32025
       O   -17.08137  -17.43731  -16.57892
      H1   -16.15138  -17.55156  -16.32767
       H   -18.25015  -17.73936  -11.91199
       O   -17.52840  -17.24089  -12.28701
      H1   -17.81030  -16.32991  -12.20047
       H   -18.73072   -5.22463  -18.37583
       O   -18.00789   -4.76588  -18.81370
      H1   -17.51625   -5.58584  -18.88460
       H   -18.74295  -19.96147  -16.04748
       O   -18.19094  -19.52678  -15.38378
      H1   -17.90001  -18.67452  -15.75646
       H   -18.54318  -13.15015  -13.30072
       O   -18.35352  -12.18534  -13.45126
      H1   -17.39383  -12.26772  -13.40822
       H   -19.38292  -15.22549  -12.24343
       O   -18.56534  -14.67839  -12.41356
      H1   -18.15578  -14.47536  -11.55652
       H   -16.57699   -7.10969  -18.44995
       O   -17.04134   -7.32648  -19.21828
      H1   -17.81316   -7.85960  -18.93756
       H   -17.12753  -10.21658  -14.15003
       O   -16.53427   -9.56903  -14.53533
      H1   -16.30635   -9.97348  -15.40375
       H   -14.52378  -17.15333  -14.33588
       O   -14.71239  -16.48410  -13.59248
      H1   -15.57063  -16.71943  -13.23184
       H   -12.93824   -8.97463  -17.02976
       O   -13.53739   -8.37275  -16.49751
      H1   -13.57758   -8.73431  -15.56287

