90
frame 0 | Written by MDAnalysis XYZWriter (release 2.4.3)
       H    -0.80254   18.70238  -14.60151
       O    -0.37693   19.55021  -14.23725
      H1     0.57467   19.27115  -14.11869
       H     3.63130   16.84373  -17.15103
       O     3.80256   17.55961  -17.81110
      H1     3.09932   17.33496  -18.49708
       H    -2.61610   18.65309  -12.11193
       O    -3.46997   18.83475  -12.56885
      H1    -3.33948   18.48522  -13.47077
       H    -1.66317   16.58858  -14.85240
       O    -0.83503   16.89896  -14.41749
      H1    -0.62458   16.18909  -13.83106
       H    -5.29360   16.60209  -17.95610
       O    -5.78925   15.97455  -18.59870
      H1    -6.64082   16.34986  -18.34808
       H    -4.13766   18.50266  -17.83078
       O    -4.60144   18.00445  -17.12568
      H1    -4.80073   18.75623  -16.53795
       H     0.83166   16.19221  -11.81975
       O     1.21137   17.12179  -11.91506
      H1     1.31308   17.15030  -12.83785
       H    -1.36148   18.75859  -17.38761
       O    -2.15741   19.37061  -17.30479
      H1    -1.81874   19.93129  -16.59563
       H    -5.75596   14.20145  -13.76127
       O    -4.80936   14.15088  -13.92115
      H1    -4.57930   13.24924  -14.13760
       H     1.26978   13.83925  -16.52820
       O     1.23913   14.74209  -16.18394
      H1     2.19118   14.95991  -15.93872
       H     1.51024   13.41891  -14.69269
       O     1.53021   12.73878  -14.05768
      H1     1.70744   12.00308  -14.63631
       H    -3.10827   17.82063   -8.52000
       O    -2.51646   17.11576   -8.89991
      H1    -3.23647   16.61070   -9.27039
       H     3.00628   19.05244  -17.43138
       O     2.51275   19.83714  -17.06616
      H1     1.74423   19.71498  -17.67138
       H    -8.37298   19.54305  -15.88773
       O    -7.52008   19.46932  -15.34509
      H1    -7.55163   18.59298  -14.96029
       H    -5.34344   16.24700  -10.12972
       O    -4.87910   15.85491   -9.32471
      H1    -4.89583   14.89492   -9.45633
       H     0.77091   15.15498  -17.89581
       O     0.46046   15.61304  -18.70929
      H1    -0.45644   15.45682  -18.83674
       H    -0.10883   14.18284  -12.02273
       O    -0.09160   14.60198  -12.92286
      H1    -0.00564   13.87100  -13.51196
       H    -0.69465   17.77354  -11.39095
       O    -1.40855   18.28023  -11.05816
      H1    -1.66750   17.75673  -10.27437
       H     0.31120   12.78988  -10.41986
       O    -0.10696   13.64720  -10.41208
      H1    -1.02471   13.36123  -10.16796
       H     3.19538   19.15749  -14.11862
       O     2.35734   19.45756  -13.71935
      H1     2.74467   19.95009  -12.96242
       H     4.58853   15.78359  -15.99499
       O     3.68996   15.71593  -15.58931
      H1     3.88950   15.66581  -14.63171
       H     4.24257   17.94665  -15.46977
       O     4.59827   18.60065  -14.79345
      H1     4.97313   19.29974  -15.31299
       H    -6.84908   17.24954  -12.96093
       O    -7.46421   17.13284  -13.74737
      H1    -8.26080   17.59575  -13.46280
       H    -4.07004   15.93882  -14.43764
       O    -3.59605   16.76400  -14.70575
      H1    -4.07588   16.84014  -15.58888
       H    -3.34501   15.27450  -18.64743
       O    -2.55930   14.75977  -18.55285
      H1    -2.50684   14.40551  -17.66398
       H     3.62153   17.15414  -12.15066
       O     4.51759   16.86612  -12.47468
      H1     4.63712   17.58255  -13.11435
       H     0.41219   16.98945  -17.71731
       O     0.25717   17.78697  -17.21689
      H1     0.18316   17.40865  -16.32164
       H    -5.89656   18.02705  -11.35253
       O    -5.58771   17.15494  -11.64653
      H1    -4.75443   17.42764  -12.05655
       H     1.59692   17.34817   -8.41097
       O     2.06014   18.05589   -8.97802
      H1     1.88148   17.65179   -9.81633
       H     3.61946   13.24504  -12.91379
       O     4.11838   14.02728  -13.10228
      H1     4.77512   14.07176  -12.41875

