90
frame 11 | Written by MDAnalysis XYZWriter (release 2.4.3)
       H    -5.46360  -16.48100   11.50023
       O    -4.97400  -16.51625   10.66126
      H1    -4.90903  -17.46138   10.39843
       H    -2.49994  -17.07145   16.12812
       O    -2.63568  -17.64769   15.34126
      H1    -2.55027  -18.59181   15.67043
       H    -5.32221  -16.95393   13.34800
       O    -5.64200  -16.07988   13.40485
      H1    -4.88984  -15.48466   13.38461
       H    -5.50864  -16.50673    6.36820
       O    -5.91015  -17.20487    5.86951
      H1    -5.50285  -17.15480    4.97478
       H    -8.36338  -17.88158    3.92725
       O    -7.57952  -18.39224    3.69738
      H1    -7.71341  -19.24197    4.17926
       H    -5.18763  -19.21203   13.89924
       O    -5.26604  -18.84830   12.99360
      H1    -6.14330  -19.19241   12.61610
       H    -8.06663  -16.30771    7.04053
       O    -9.00207  -16.67530    6.97990
      H1    -9.38856  -16.17175    7.69296
       H    -1.87694  -15.51915    9.14814
       O    -1.86870  -14.73624    8.57511
      H1    -2.54729  -14.54416    7.87029
       H    -4.12964  -13.16421   12.24060
       O    -4.07410  -14.14746   12.37825
      H1    -3.93877  -14.40975   11.44280
       H   -11.99081  -16.12136   10.85027
       O   -12.53004  -16.47986   11.60557
      H1   -12.15975  -16.07032   12.38196
       H   -10.63826  -17.74911    4.45533
       O   -10.29570  -18.19563    5.23521
      H1   -10.00607  -17.39599    5.79318
       H    -1.27644  -17.64226    8.94571
       O    -1.59902  -17.30605    9.78910
      H1    -1.24549  -17.73398   10.55103
       H    -7.87863  -16.42213   16.12041
       O    -7.92782  -16.73632   15.17277
      H1    -6.99475  -16.75822   14.87931
       H    -8.58645  -16.58784   10.79726
       O    -9.08591  -17.38881   10.82098
      H1    -8.88467  -17.91310   10.05447
       H    -5.40957  -18.42245   17.44800
       O    -5.28449  -18.95801   18.24063
      H1    -4.55864  -18.58130   18.77466
       H    -3.93324  -18.89951    8.82505
       O    -3.88111  -18.91609    9.78892
      H1    -3.07683  -18.40907    9.97369
       H   -10.18201  -14.62280   13.48202
       O   -10.67796  -15.41636   13.48411
      H1   -10.08769  -16.06712   14.04447
       H    -9.14968  -19.44189    8.64336
       O    -8.42817  -18.78511    8.60301
      H1    -8.71469  -18.17944    7.88557
       H    -0.66455  -18.79877   12.85605
       O    -1.22370  -18.02555   12.54603
      H1    -1.77337  -17.83879   13.31325
       H   -10.31716  -17.41560   16.76977
       O   -10.21419  -18.13835   16.11663
      H1    -9.52826  -17.78553   15.50069
       H   -11.10570  -14.37414    9.56548
       O   -11.08608  -13.50695    9.93835
      H1   -11.78839  -13.46551   10.59168
       H    -9.17173  -14.39485   10.92668
       O    -8.27984  -14.67570   11.00887
      H1    -7.98259  -14.33151   11.83068
       H   -13.05625  -17.55524   15.05974
       O   -12.60100  -18.35035   15.20548
      H1   -11.70537  -18.22993   15.49444
       H    -0.31908  -17.89769    6.86297
       O    -1.08503  -18.13066    7.37325
      H1    -0.99050  -19.04741    7.59897
       H    -7.05588  -19.86369   10.89840
       O    -7.44843  -19.46389   11.74171
      H1    -8.08862  -18.82751   11.32261
       H    -6.00073  -14.42696    8.40206
       O    -5.73431  -15.28900    8.10811
      H1    -5.47772  -15.62890    8.96695
       H   -10.44479  -16.82163    9.77672
       O   -11.04212  -16.22434    9.24159
      H1   -11.68904  -16.72643    8.73184
       H    -5.35925  -16.50445   16.83963
       O    -5.31020  -17.26822   16.20404
      H1    -4.37927  -17.28804   15.90674
       H    -4.61968  -18.74245    6.58758
       O    -4.56173  -19.45258    7.24953
      H1    -3.85341  -20.04532    6.90325
       H   -12.62907  -18.75669   13.35179
       O   -12.46504  -19.17540   12.45985
      H1   -12.37374  -18.39028   11.96278

