90
frame 10 | Written by MDAnalysis XYZWriter (release 2.4.3)
       H    -9.01531  -19.23619   -7.00812
       O    -8.62584  -19.45454   -6.13389
      H1    -9.34481  -19.89400   -5.63151
       H    -9.26129  -16.94229   -3.39104
       O    -9.21466  -16.84988   -4.39225
      H1    -8.42047  -17.33236   -4.62323
       H   -11.74147  -19.28638   -4.55715
       O   -11.37818  -20.05463   -5.04184
      H1   -11.89204  -20.07446   -5.86215
       H    -4.33588  -18.10626   -3.22901
       O    -3.63331  -18.50779   -3.81250
      H1    -3.45367  -17.84319   -4.47155
       H   -12.19842  -19.09868   -8.61809
       O   -12.28210  -19.23956   -7.68443
      H1   -13.18817  -19.05129   -7.41042
       H    -8.98626  -16.13202   -7.90165
       O    -8.29397  -15.45910   -7.99489
      H1    -8.55143  -15.01975   -7.23738
       H    -7.15263  -18.68081   -5.10116
       O    -6.64885  -17.85624   -5.19477
      H1    -6.80301  -17.70154   -6.13756
       H   -10.56531  -12.52988   -2.00735
       O   -10.27515  -12.08873   -1.13325
      H1   -10.70215  -11.25212   -1.05621
       H    -6.22440  -17.06612   -7.86919
       O    -6.60800  -17.93781   -7.94475
      H1    -7.55072  -17.84292   -8.11643
       H    -4.51620  -12.31965   -4.60992
       O    -5.18126  -13.00945   -4.44060
      H1    -5.66915  -13.22435   -5.26044
       H   -11.69482  -19.27409    1.05080
       O   -12.52925  -19.26611    1.52876
      H1   -12.36989  -19.89641    2.25621
       H   -11.43302  -17.14911    2.15643
       O   -10.50952  -17.10484    2.31768
      H1   -10.06933  -16.61343    1.56300
       H    -8.73993  -15.26368   -4.97043
       O    -8.54135  -14.37724   -5.47958
      H1    -9.22433  -13.84477   -5.05894
       H    -6.06464  -17.48253   -3.62469
       O    -5.87715  -17.36187   -2.72299
      H1    -5.65581  -16.41495   -2.67210
       H   -12.88382  -11.29356   -4.32274
       O   -12.55215  -12.14335   -4.80575
      H1   -13.15127  -12.88530   -4.59916
       H    -5.82654  -13.81348   -3.19921
       O    -5.86231  -14.47029   -2.48881
      H1    -4.89970  -14.53076   -2.17301
       H    -8.70523  -12.41072   -2.08951
       O    -7.74817  -12.20699   -2.32193
      H1    -7.42025  -13.06785   -2.68326
       H   -14.63426  -16.75994   -2.01065
       O   -15.00491  -17.17682   -2.80953
      H1   -15.18909  -18.10826   -2.48355
       H    -5.83945  -16.17644   -0.26487
       O    -6.41953  -15.72865    0.37464
      H1    -6.91769  -15.07880   -0.08974
       H    -7.74625  -12.63146    0.95937
       O    -8.17488  -13.16122    1.65309
      H1    -8.82736  -13.63866    1.13592
       H   -11.69995  -14.32370   -8.07033
       O   -11.69988  -14.39027   -7.16238
      H1   -11.43928  -15.24983   -6.99694
       H    -8.84908  -16.87117   -0.27506
       O    -9.45586  -16.12085   -0.11680
      H1   -10.14650  -16.21629   -0.75108
       H   -10.98949  -17.71769   -7.07683
       O   -10.53985  -16.87378   -6.92898
      H1   -10.08606  -17.07742   -6.05669
       H   -13.40016  -17.66187   -3.52294
       O   -12.63095  -17.67589   -4.07004
      H1   -12.88778  -17.27640   -4.84943
       H    -7.35216  -19.10485   -0.55521
       O    -7.77940  -18.26199   -0.87907
      H1    -7.08848  -17.80554   -1.42044
       H    -7.29434  -13.65227   -6.38377
       O    -6.36344  -13.44185   -6.69055
      H1    -6.46426  -12.80045   -7.34359
       H   -12.01575  -15.76707   -1.63246
       O   -11.37855  -15.91112   -2.32483
      H1   -11.90156  -16.56378   -2.83730
       H   -11.15851  -13.18898   -3.98173
       O   -10.42639  -13.58299   -3.49398
      H1   -10.72619  -14.31273   -2.95433
       H   -14.02476  -14.53277   -0.59222
       O   -13.55320  -15.31453   -0.44470
      H1   -13.42879  -15.46527    0.48307
       H   -14.19785  -15.44929   -5.05223
       O   -13.73973  -15.87782   -5.79726
      H1   -13.31432  -15.13374   -6.30722

