90
frame 0 | Written by MDAnalysis XYZWriter (release 2.4.3)
       H    15.25770   10.04166   18.00046
       O    15.56407   10.50379   18.84027
      H1    16.43673   10.81736   18.46969
       H    18.02663    8.96376    6.64373
       O    17.31434    9.41276    6.09848
      H1    16.53983    8.77452    6.20660
       H    17.59528    6.07476   12.87681
       O    17.74293    6.30855   13.78609
      H1    17.55473    5.45388   14.20740
       H    18.32349   12.39788   11.70753
       O    18.91844   12.18538   12.48907
      H1    19.24149   11.27537   12.28386
       H    16.79040   14.97741   11.39815
       O    17.56324   15.23394   10.89588
      H1    17.27745   15.90679   10.28933
       H    15.83288    8.04610   15.48047
       O    15.97290    8.49298   14.54690
      H1    16.83168    8.04120   14.35545
       H    14.27000   11.81319   12.11789
       O    14.24905   12.44332   11.32183
      H1    15.13984   12.52834   10.93430
       H    19.08805   14.39900    7.31177
       O    19.43170   15.26045    7.42946
      H1    19.31641   15.60095    6.52077
       H    17.30716   14.65880   14.45878
       O    16.89660   15.39125   13.93768
      H1    15.98128   15.39223   14.29431
       H    18.14705   16.45834   18.27118
       O    18.62590   16.34340   17.42386
      H1    19.09863   15.52351   17.67878
       H    14.62723    7.76795   13.61957
       O    13.90534    7.30945   13.19097
      H1    13.48769    8.05571   12.71130
       H    18.10713   13.54271   15.81016
       O    17.39728   13.73814   16.44039
      H1    17.48838   14.70180   16.64131
       H    18.28445   11.44061   18.04155
       O    17.84006   12.05099   18.63965
      H1    17.66012   12.81319   18.10187
       H    15.17593   16.77749   11.86209
       O    15.12052   17.77225   11.89993
      H1    14.92192   17.97672   12.84935
       H    14.19222   14.36008   11.28595
       O    14.59838   15.19540   11.59468
      H1    14.43382   15.03898   12.56875
       H    13.78963   11.67440   15.87059
       O    13.49970   10.79702   16.27632
      H1    12.53602   10.72355   16.32863
       H    18.90432    9.34712   17.27207
       O    18.81983   10.22176   17.02330
      H1    19.72570   10.31924   16.64103
       H    16.88380   13.63662   10.18432
       O    16.81164   12.66157   10.16583
      H1    16.81942   12.48975    9.24139
       H    16.31433   10.57627   13.86924
       O    16.38371   11.49026   13.58652
      H1    17.34752   11.62587   13.59995
       H    12.08282   10.91613   13.08050
       O    12.77384   10.41176   13.54731
      H1    12.60890   10.55719   14.45688
       H    15.77101   14.94243    6.97053
       O    15.85782   14.73522    7.88873
      H1    16.28488   15.54988    8.19792
       H    14.71748   11.25721    7.72689
       O    13.89090   10.90640    8.16460
      H1    13.63123   10.27744    7.49562
       H    19.44278   12.04862    6.51148
       O    18.68423   12.35175    5.97030
      H1    19.07152   12.29294    5.08399
       H    16.70874   10.90321    6.92097
       O    16.36746   11.66535    7.42115
      H1    17.11068   12.28388    7.18811
       H    15.03926   13.24381   15.93194
       O    14.57454   12.88390   15.17725
      H1    15.12502   12.39232   14.57800
       H    13.26816   15.52135   14.30666
       O    14.21232   15.34610   14.46382
      H1    14.19162   14.37640   14.58719
       H    17.37273   17.84943    9.49928
       O    17.10664   17.10969    9.00525
      H1    17.98964   16.81014    8.57468
       H    17.30061   16.99601   14.55641
       O    17.43963   17.78499   15.15487
      H1    17.79938   17.34845   15.93436
       H    12.32594   12.07887   10.97744
       O    11.64930   11.37333   10.73164
      H1    12.27292   10.59943   10.51900
       H    17.20557    9.65951   10.78007
       O    17.81315    9.04295   11.15557
      H1    18.45603    8.87842   10.47555

