90
frame 11 | Written by MDAnalysis XYZWriter (release 2.4.3)
       H    -8.00549   19.37537    2.26896
       O    -8.14569   18.60887    1.69813
      H1    -9.06796   18.40148    1.69318
       H    -6.59169   17.94565    4.27419
       O    -5.90318   17.36744    4.00103
      H1    -6.04532   17.23881    3.07901
       H   -10.11560   17.08032    7.36731
       O    -9.97411   16.15863    7.71152
      H1    -9.96908   15.59737    6.92871
       H    -4.93622   15.65150   12.43484
       O    -5.31211   15.20296   13.18427
      H1    -6.26719   15.21243   12.98418
       H   -10.43595   16.87208   11.98050
       O   -10.18118   15.92839   12.08963
      H1   -10.99356   15.43536   11.94416
       H   -11.28255   18.89420    7.29803
       O   -10.36041   18.66438    7.18636
      H1   -10.06676   19.23761    6.45658
       H    -7.50098   15.07156    8.89554
       O    -7.20866   15.78864    8.37739
      H1    -8.05036   16.15713    8.11076
       H    -3.12309   19.69259    4.33445
       O    -3.13609   19.10141    3.55218
      H1    -3.60641   18.27720    3.72826
       H    -8.50042   17.77037    4.67729
       O    -8.04151   18.62830    4.95292
      H1    -7.72002   18.63500    5.82018
       H    -4.18400   16.20019    7.82132
       O    -3.40524   16.16636    8.49421
      H1    -2.74430   15.64829    8.01903
       H    -8.80779   14.94250   12.62675
       O    -8.22308   14.16728   12.77572
      H1    -7.68651   14.26046   11.92586
       H   -11.82075   18.10574    1.98819
       O   -10.90799   18.36330    2.30337
      H1   -10.60148   17.74233    2.93778
       H    -1.66238   18.14934    4.19057
       O    -1.22163   17.50418    4.75404
      H1    -0.41787   17.93487    5.08239
       H    -9.71377   15.81437    3.90808
       O    -9.97390   16.66532    4.31436
      H1   -10.82789   16.61288    4.73677
       H    -6.00529   19.18913    7.25906
       O    -6.87455   18.71051    7.35776
      H1    -7.39593   19.38759    7.74759
       H   -12.58850   14.84371    8.71682
       O   -12.50333   15.69274    8.37553
      H1   -11.57890   15.83958    8.10338
       H    -1.68092   16.25738   11.54295
       O    -1.36284   15.75088   10.77895
      H1    -1.41840   16.43525   10.01512
       H    -2.33920   13.95689    6.95568
       O    -1.81722   13.92743    7.76328
      H1    -0.88761   13.92650    7.44893
       H    -3.00429   18.65148   11.16842
       O    -2.07208   18.70617   11.40603
      H1    -1.92837   19.66604   11.57274
       H   -11.15343   13.19188    6.41737
       O   -10.50516   13.79657    5.94535
      H1    -9.78556   13.47621    6.52999
       H    -3.90481   16.23979   10.45977
       O    -4.38225   16.71393   11.12718
      H1    -5.08175   17.27387   10.69593
       H    -9.14950   19.43172   12.15504
       O    -9.91765   18.98151   12.55179
      H1   -10.71186   19.54071   12.34721
       H    -6.23087   17.19696    0.67463
       O    -5.37236   17.23573    1.12342
      H1    -5.02348   18.06296    0.90252
       H    -2.12704   17.81177    6.34841
       O    -2.56248   18.26107    7.11003
      H1    -2.77966   17.61753    7.77719
       H    -5.25488   18.96790    9.73406
       O    -5.99004   18.34615    9.85960
      H1    -6.26497   18.17644    8.92723
       H    -6.61347   13.12764   10.93088
       O    -6.60143   14.02652   10.64444
      H1    -5.83158   14.39667   11.09033
       H    -5.50238   16.60773    5.58712
       O    -5.28492   15.99425    6.33880
      H1    -5.97338   15.95315    6.98683
       H    -8.89222   13.28172   10.68831
       O    -9.71382   13.16430   10.16333
      H1   -10.16850   12.54277   10.80112
       H    -3.98300   14.99782    5.71583
       O    -3.26806   14.36541    5.57258
      H1    -2.93060   14.66947    4.73300
       H    -5.17070   12.77806    6.63167
       O    -5.19997   11.90474    6.34984
      H1    -5.80747   11.49677    7.03612

