90
frame 11 | Written by MDAnalysis XYZWriter (release 2.4.3)
       H   -19.18836   11.75034   -8.38081
       O   -18.97851   10.84752   -8.34151
      H1   -19.52486   10.56471   -7.57314
       H   -17.97066   12.24900   -5.99283
       O   -18.70624   12.92342   -5.82331
      H1   -19.53109   12.59886   -6.14877
       H   -17.62974    4.39406   -9.22797
       O   -17.71357    5.16533   -9.78096
      H1   -18.42299    4.94355  -10.42101
       H   -14.40436   11.27151  -12.80415
       O   -14.47983   10.79689  -11.94943
      H1   -15.41974   10.59769  -11.84002
       H   -17.54633    2.04758   -9.83811
       O   -16.72818    2.53949   -9.82305
      H1   -16.91033    3.37993  -10.26393
       H   -14.64251    2.61046   -9.82203
       O   -13.85662    2.82121  -10.27453
      H1   -13.20710    3.12136   -9.64502
       H   -14.76131    7.91018  -11.43796
       O   -13.99969    8.02936  -11.94665
      H1   -13.89981    8.96897  -12.12048
       H   -11.84384    9.22368   -7.99371
       O   -12.41360    8.47392   -8.00793
      H1   -13.29564    8.82633   -8.02392
       H   -15.44658    5.56748  -14.54051
       O   -15.43167    5.79654  -13.59112
      H1   -14.59935    6.28246  -13.35230
       H   -18.03716    9.77542   -4.89976
       O   -18.94526    9.72436   -4.48639
      H1   -18.71793    9.19422   -3.68024
       H   -15.53513    6.64609   -9.55595
       O   -15.94774    7.28187  -10.19795
      H1   -16.67371    6.88296  -10.65829
       H   -13.96238    6.28075   -7.82465
       O   -14.08344    5.50972   -8.45019
      H1   -13.28382    5.51020   -8.98175
       H   -16.31056    9.47434   -4.19331
       O   -16.29708    8.54027   -4.43574
      H1   -16.58126    8.46625   -5.39230
       H   -14.05165    3.05633   -6.38535
       O   -14.42105    2.76296   -7.19937
      H1   -14.60096    3.56762   -7.70981
       H   -17.96203    7.80092   -7.50512
       O   -17.32726    8.31798   -6.91673
      H1   -16.60979    8.61391   -7.51393
       H   -17.56936    8.16566  -15.19263
       O   -16.78244    8.21593  -15.74781
      H1   -16.41643    9.11441  -15.81176
       H   -17.06659    3.09409   -5.74968
       O   -16.76281    2.22997   -5.54683
      H1   -16.17046    2.11219   -6.25402
       H   -16.56786    1.71305  -11.29522
       O   -16.89596    1.51429  -12.24519
      H1   -16.82099    0.50356  -12.21648
       H   -17.55651    6.20968   -3.08770
       O   -17.06058    5.43223   -3.44514
      H1   -16.90871    5.52255   -4.37773
       H   -17.18540    6.47856  -12.71455
       O   -17.75976    6.88487  -12.07906
      H1   -18.58165    6.40732  -12.00350
       H   -14.52682    4.33229  -13.34168
       O   -13.84672    3.62228  -13.30583
      H1   -13.99339    3.26974  -12.41712
       H   -16.30870   10.75587   -6.97002
       O   -16.35875   11.17844   -6.10504
      H1   -15.46671   11.47070   -5.88974
       H   -17.55205    5.33818   -7.05847
       O   -17.62200    4.70951   -6.36105
      H1   -18.36110    4.09430   -6.56261
       H   -17.33050   10.47315   -9.93093
       O   -17.11905   10.06507  -10.72248
      H1   -17.58808    9.20665  -10.71666
       H   -20.03440    1.65732  -12.57048
       O   -19.26898    1.42404  -13.16897
      H1   -18.44214    1.46400  -12.69299
       H   -19.67282    7.91438   -9.50122
       O   -19.53983    7.13253   -8.86768
      H1   -18.87794    6.62310   -9.34063
       H   -19.87932    8.96317  -14.74353
       O   -19.16236    8.69236  -14.13503
      H1   -19.47688    8.35105  -13.29647
       H   -17.82181   11.14135  -12.11364
       O   -18.20354   11.43322  -12.96138
      H1   -18.44669   10.63395  -13.44549
       H   -20.05379    4.06206  -14.23216
       O   -19.06593    3.95316  -14.18844
      H1   -19.01087    3.01539  -13.90580
       H   -15.37839    8.83288   -9.34139
       O   -15.08215    9.34487   -8.54994
      H1   -14.89778   10.22167   -8.93042

