90
frame 0 | Written by MDAnalysis XYZWriter (release 2.4.3)
       H   -18.46912   -7.61891   -3.33213
       O   -17.98784   -6.94984   -2.75781
      H1   -17.26581   -7.48230   -2.42258
       H   -12.43099   -8.68346   -2.75631
       O   -12.45553   -9.52972   -3.19713
      H1   -11.52603   -9.81482   -3.10544
       H   -14.56457  -12.45761   -8.81447
       O   -14.80896  -12.74914   -7.88156
      H1   -14.63056  -13.67203   -7.91741
       H   -13.92158   -4.80031   -7.64239
       O   -14.27409   -4.50443   -6.82065
      H1   -14.73537   -3.70672   -7.18246
       H   -18.90412  -11.55956   -7.02608
       O   -18.56248  -11.82227   -6.10128
      H1   -17.98780  -12.58452   -6.39345
       H   -16.32152   -6.91766   -8.50456
       O   -16.62180   -7.37900   -9.31427
      H1   -16.24326   -8.23951   -9.04867
       H   -18.61659   -9.26934   -4.41073
       O   -19.35711   -8.74524   -4.04506
      H1   -20.00960   -8.78500   -4.78400
       H   -16.17919   -5.30789   -6.76249
       O   -16.61978   -6.09681   -7.00711
      H1   -17.49242   -6.00993   -6.50436
       H   -12.45467   -6.85523   -5.23254
       O   -12.03237   -7.71356   -5.31383
      H1   -12.43997   -8.30801   -4.69750
       H   -15.44037  -10.32834   -9.62780
       O   -15.68871   -9.74338   -8.90177
      H1   -14.87234   -9.32368   -8.67760
       H   -12.77593  -10.54816   -7.42916
       O   -12.44502  -10.55087   -8.33720
      H1   -11.52548  -10.43745   -8.19305
       H   -15.28259  -11.83111  -11.96291
       O   -14.97370  -10.99662  -11.55113
      H1   -15.37693  -10.35277  -12.19348
       H   -18.64642  -15.34372   -5.67220
       O   -17.68770  -14.99165   -5.63133
      H1   -17.17286  -15.80883   -5.50264
       H   -18.92789  -12.40958   -9.34760
       O   -19.30505  -11.64603   -9.81809
      H1   -19.19148  -10.89433   -9.19196
       H   -19.64951   -9.21518   -7.57901
       O   -18.91783   -9.14794   -8.17585
      H1   -19.01150   -8.25906   -8.65519
       H   -17.27904  -14.55959   -7.91109
       O   -17.36890  -13.70736   -8.30399
      H1   -16.62916  -13.12312   -8.02195
       H   -18.43941   -8.91588   -0.37680
       O   -17.51803   -9.05433   -0.68829
      H1   -17.13427   -9.60760    0.04037
       H   -19.56349   -4.92572   -5.81938
       O   -19.13570   -5.79573   -5.92370
      H1   -19.09850   -6.06126   -4.98025
       H   -18.79650  -11.44923  -12.72050
       O   -17.87047  -11.16074  -12.69043
      H1   -17.76708  -11.24712  -11.75092
       H   -13.70518   -4.77460   -4.91676
       O   -13.27594   -4.84610   -3.98113
      H1   -12.55894   -4.18332   -3.95922
       H   -13.34598   -8.20599   -7.06738
       O   -13.53772   -8.18938   -8.01446
      H1   -12.95517   -8.93618   -8.24380
       H   -15.65415  -11.57778   -3.32657
       O   -15.38216  -10.82610   -2.77512
      H1   -14.40578  -10.82011   -2.86292
       H   -14.50768  -10.80004   -6.30844
       O   -13.66446  -10.61033   -5.84372
      H1   -14.06020   -9.93117   -5.26135
       H   -17.74876  -10.37613   -5.90005
       O   -17.46859   -9.44681   -5.65407
      H1   -17.76742   -8.97533   -6.43248
       H   -17.52223   -5.02377   -3.78895
       O   -17.42002   -4.07191   -3.86304
      H1   -16.72640   -3.79411   -3.22552
       H   -12.89318   -5.98571  -10.03601
       O   -12.99121   -5.75382   -9.13767
      H1   -13.17910   -6.59968   -8.68187
       H   -15.15308   -9.13738   -3.57640
       O   -15.03901   -8.45120   -4.25476
      H1   -15.84001   -8.41747   -4.76150
       H   -15.47855   -7.08838  -10.68101
       O   -15.00880   -7.11070  -11.54083
      H1   -15.19823   -6.16196  -11.80206
       H   -16.29839  -13.46921   -4.90370
       O   -15.51125  -13.17157   -4.41329
      H1   -15.01682  -12.88856   -5.19259
       H   -19.46350   -6.69003  -10.38327
       O   -19.28397   -6.79099   -9.39577
      H1   -18.25773   -6.87055   -9.42225

