90
frame 10 | Written by MDAnalysis XYZWriter (release 2.4.3)
       H   -17.88019    4.19338   -9.90632
       O   -17.91926    5.12610  -10.02385
      H1   -18.54536    5.35532  -10.73055
       H   -13.92275   12.03509  -12.27202
       O   -14.22318   11.25393  -11.66297
      H1   -15.20701   11.36014  -11.63435
       H   -18.09175    1.93165   -9.52496
       O   -17.17869    1.93496   -9.81937
      H1   -16.90939    1.04747   -9.75755
       H   -15.25319    4.76227  -17.87538
       O   -15.43433    4.45100  -16.98115
      H1   -14.68716    3.79665  -16.82315
       H   -13.36114    1.40442  -10.64924
       O   -12.85622    2.22252  -10.64361
      H1   -12.94742    2.61421   -9.77156
       H   -14.04100    8.23018  -11.49139
       O   -13.62178    8.75859  -12.17851
      H1   -13.77490    9.70612  -12.07450
       H   -11.96201    8.94817   -7.22143
       O   -12.79024    8.59405   -7.60424
      H1   -13.43317    9.21132   -7.31357
       H   -12.21386    8.83741   -9.32029
       O   -11.91943    8.69926  -10.20536
      H1   -12.65519    8.90445  -10.77173
       H   -10.62367    5.29984  -11.35769
       O   -10.48610    4.67846  -12.13447
      H1   -11.39452    4.38631  -12.37757
       H   -15.39377    4.89250  -14.58969
       O   -14.90229    5.34897  -13.89065
      H1   -14.47846    6.04382  -14.43616
       H   -14.46708    6.74235   -9.21681
       O   -15.07602    7.41670   -9.64873
      H1   -15.45374    6.96541  -10.41680
       H   -13.79466    5.69088   -7.45389
       O   -13.84054    5.43750   -8.37295
      H1   -12.95262    5.52342   -8.74296
       H   -13.04185    2.41755   -7.23012
       O   -13.59663    2.54488   -8.04634
      H1   -13.96787    3.44754   -7.94912
       H   -11.72978    6.85795   -9.98371
       O   -11.51425    5.91743   -9.85122
      H1   -10.75208    5.97180   -9.25695
       H   -17.63275    7.46701   -7.34352
       O   -16.99735    7.71299   -6.66537
      H1   -16.43143    8.39279   -6.97141
       H   -17.34923    7.92592  -15.50609
       O   -16.53785    8.25402  -15.87267
      H1   -16.51943    9.18866  -15.69483
       H   -16.97415    1.34729  -11.82968
       O   -16.93297    1.39540  -12.80504
      H1   -16.82643    0.50116  -13.10197
       H   -15.64685    6.23273  -12.52887
       O   -16.38633    6.60865  -11.94827
      H1   -16.77547    5.87125  -11.49957
       H   -16.17941   12.07424  -15.45108
       O   -15.85524   11.14339  -15.40811
      H1   -15.24979   11.06812  -14.65023
       H   -13.78086    4.30737  -13.19816
       O   -13.03134    3.73071  -12.96134
      H1   -13.22850    3.29368  -12.10543
       H   -17.24225    6.57559  -17.05467
       O   -17.97372    6.51457  -17.73559
      H1   -17.99994    7.19361  -18.37235
       H   -17.81435    2.94213  -15.25961
       O   -17.28325    2.68421  -16.02859
      H1   -16.81556    3.38227  -16.42513
       H   -16.29677    5.67980   -6.37124
       O   -16.35957    4.74612   -6.23801
      H1   -17.32669    4.61196   -6.28896
       H   -17.33224   10.25258   -9.94578
       O   -16.96536    9.83369  -10.78280
      H1   -17.06239    8.87467  -10.74908
       H   -12.68756    6.38114  -16.38674
       O   -11.90953    5.80332  -16.45304
      H1   -11.25481    6.25055  -15.89780
       H   -14.69449    0.91947  -13.17472
       O   -13.79206    1.19783  -13.39032
      H1   -13.70582    2.20839  -13.37958
       H   -13.80482    8.09962  -14.00100
       O   -13.91767    7.72221  -14.91719
      H1   -14.90250    7.70552  -14.99879
       H   -19.39145    8.20228   -8.93223
       O   -18.95909    7.39109   -8.64809
      H1   -18.55004    6.86692   -9.33924
       H   -19.07922    7.15700  -13.96961
       O   -18.18847    7.03603  -14.26790
      H1   -17.67801    7.10945  -13.41882
       H   -15.36877    9.18953   -8.99491
       O   -15.47594    9.81457   -8.28288
      H1   -15.38934   10.71399   -8.54272

