90
frame 11 | Written by MDAnalysis XYZWriter (release 2.4.3)
       H    18.80830    4.30838   -7.13786
       O    19.31748    3.48077   -7.10942
      H1    19.01197    2.90231   -7.79317
       H    15.86570    8.41740   -5.83569
       O    15.95158    9.23752   -6.40078
      H1    15.12775    9.74502   -6.22721
       H    13.25902   10.16049  -13.11401
       O    13.40250   11.05392  -13.19993
      H1    13.97084   11.36646  -12.51549
       H    17.18711   14.89142  -15.98639
       O    17.19853   14.85331  -15.00369
      H1    16.60513   14.17365  -14.76040
       H    14.19755   13.44342   -9.49284
       O    14.59725   14.29215   -9.70622
      H1    13.82291   14.80940   -9.99022
       H    15.31354   13.31650  -10.81324
       O    15.70961   12.69963  -11.45819
      H1    16.62605   12.65625  -11.14249
       H    15.23898    7.90154   -8.01411
       O    14.39622    8.00580   -8.46856
      H1    13.94811    8.70755   -8.00024
       H    18.65122   10.00028   -3.33850
       O    18.16706   10.26919   -2.56185
      H1    18.71217   10.89622   -2.07359
       H    19.40028   10.10584   -9.73519
       O    18.99550    9.36891  -10.26613
      H1    18.03767    9.46873  -10.10137
       H    18.18852    6.86656   -4.53623
       O    17.76839    6.45629   -3.75729
      H1    17.64089    5.51232   -3.90938
       H    12.84669   11.11698   -9.80949
       O    13.72043   11.44173   -9.63386
      H1    13.67313   11.64130   -8.72991
       H    17.28834   10.87509  -15.04531
       O    17.84640   11.62956  -15.10844
      H1    18.12744   11.50353  -15.97868
       H    14.24773    7.76144  -13.21013
       O    13.34570    7.99427  -12.97281
      H1    13.23820    7.81764  -12.05138
       H    19.07253    9.94498   -5.59527
       O    18.50346   10.37728   -6.23274
      H1    17.72572    9.83469   -6.30286
       H    15.60373    8.94477  -15.13679
       O    16.01041    9.50519  -14.45766
      H1    15.31357   10.12366  -14.16848
       H    16.29643   12.32416  -14.42848
       O    15.53152   12.88171  -14.23422
      H1    15.52844   13.10748  -13.32441
       H    18.84544   11.09921  -11.11087
       O    18.69855   12.03976  -11.08410
      H1    19.43348   12.46651  -11.57249
       H    18.59513    5.19579  -11.57075
       O    19.55029    4.96657  -11.65733
      H1    19.75922    4.68581  -12.55241
       H    16.12499    8.56965  -11.73026
       O    16.28263    7.80693  -12.31374
      H1    16.50022    8.16816  -13.18330
       H    18.75777   13.36300   -9.40450
       O    19.12245   13.65248   -8.57444
      H1    19.83818   14.24464   -8.78237
       H    17.29281    2.93597  -11.23485
       O    17.53704    2.03484  -11.51132
      H1    16.75182    1.65803  -11.91909
       H    15.58776    9.11725   -9.73280
       O    16.21893    9.74842  -10.21382
      H1    15.79775   10.64841  -10.12484
       H    17.12224    5.85649   -7.10820
       O    18.01889    6.17018   -6.76729
      H1    18.49541    6.63335   -7.49672
       H    12.78562   10.60478   -6.36649
       O    13.09913    9.68129   -6.60138
      H1    12.28193    9.25743   -6.84490
       H    19.32853    7.72692  -16.68945
       O    18.47746    8.05214  -16.44569
      H1    18.41184    8.86557  -16.95080
       H    16.08897    3.81430   -7.21361
       O    15.80047    4.75001   -7.29246
      H1    14.93246    4.73925   -7.74286
       H    17.13547    6.59671  -16.40889
       O    16.57813    5.79900  -16.34034
      H1    16.44717    5.40688  -17.26034
       H    13.81521    6.33703   -8.67746
       O    13.53474    5.44175   -8.78177
      H1    13.70385    5.07543   -9.65366
       H    16.58764    5.99399  -11.59923
       O    16.93870    5.06351  -11.58534
      H1    17.18037    4.91971  -12.52968
       H    17.84282   11.99494   -6.14435
       O    17.75004   12.94343   -6.16872
      H1    18.07743   13.24987   -7.04541

