93
frame 1 | Written by MDAnalysis XYZWriter (release 2.4.3)
       H    11.32221   10.71243  -14.71022
       O    11.49651   11.57620  -14.44767
      H1    12.35647   11.78627  -13.96282
       H     5.27086   13.81023  -15.45650
       O     6.24206   13.87696  -15.52755
      H1     6.60609   13.02151  -15.25550
       H    11.09816    8.33823  -15.84655
       O    12.00166    8.40101  -16.15396
      H1    11.99917    8.25663  -17.10644
       H    12.48109    5.02399  -14.85305
       O    12.68598    4.45535  -14.12776
      H1    12.97645    5.03811  -13.45204
       H     4.87729    5.20259  -19.39936
       O     4.13851    4.85138  -18.92336
      H1     4.06322    5.39278  -18.14736
       H     1.86199    9.43803  -18.50739
       O     1.55757   10.13837  -19.11971
      H1     2.02778    9.89656  -19.94427
       H     7.78270    9.91742  -16.95700
       O     8.67629   10.25980  -16.74516
      H1     8.89479   10.74014  -17.55928
       H     9.67460    6.21254  -18.49382
       O    10.37617    6.06522  -17.75489
      H1    11.18400    5.97845  -18.23507
       H     6.10534    8.32605  -14.38791
       O     6.67442    7.93127  -15.09528
      H1     6.57221    8.59361  -15.82483
       H     9.53426    5.88510  -13.49680
       O     9.69247    6.62005  -12.90504
      H1     9.58926    7.39367  -13.47858
       H     8.27463    4.61047  -14.98645
       O     9.10232    4.57256  -14.51877
      H1     9.41401    3.69928  -14.65161
       H     5.48453    7.03175  -16.76909
       O     4.60924    6.62741  -16.86718
      H1     4.04718    7.38465  -16.66946
       H     6.11864   13.19785  -17.35670
       O     6.29823   12.54968  -18.06524
      H1     7.22253   12.29507  -17.93331
       H     9.40386   13.58547  -18.98080
       O     9.18007   13.11567  -18.18431
      H1     8.70704   13.93648  -17.79583
       H     7.70750    6.94784  -18.71430
       O     7.33934    6.84671  -17.82364
      H1     8.10047    7.10188  -17.25363
       H     9.01815    0.92115  -18.07254
       O     9.37807    1.48690  -18.77968
      H1     8.97767    2.32181  -18.65821
       H     1.37575    8.52870  -16.69174
       O     2.29448    8.71801  -16.92909
      H1     2.70504    9.22016  -16.17861
       H    13.56921    4.80181  -18.14924
       O    13.57511    5.79421  -18.02542
      H1    13.92816    6.23493  -18.78135
       H     4.13803    9.92123  -14.63303
       O     3.23043   10.13169  -14.96127
      H1     2.62922   10.01267  -14.21421
       H     7.28983    5.13108  -17.37617
       O     7.31033    4.29456  -16.88972
      H1     6.42369    4.30558  -16.53068
       H    11.50269    6.56615  -12.60773
       O    12.45038    6.52000  -12.38533
      H1    12.68201    6.99071  -11.56195
       H     8.95870    9.36666  -15.03029
       O     9.52161    9.29425  -14.24931
      H1     9.00734    9.60300  -13.51655
       H     5.36550   10.50321  -17.43105
       O     5.83202    9.68051  -17.39594
      H1     6.16003    9.62890  -18.31489
       H    10.40246    2.12915  -17.27529
       O    10.99883    2.61432  -16.70703
      H1    10.74688    3.49809  -16.67817
       H     6.84508    3.37214  -18.17559
       O     6.53954    2.95553  -18.98128
      H1     5.64612    3.27710  -19.09967
       H     6.49762   10.45121  -14.02889
       O     5.65493   10.02232  -13.86704
      H1     5.29281   10.48839  -13.06197
       H     5.74281    6.01364  -14.82723
       O     5.61811    5.06799  -14.61571
      H1     6.01730    5.01822  -13.73783
       H     7.76535    6.36898  -12.78123
       O     6.86899    6.11278  -12.50432
      H1     6.42498    6.95544  -12.20648
       H    11.33943    9.27825  -19.33034
       O    11.97427    8.55673  -19.16870
      H1    12.52737    8.61341  -19.92931
       H     8.26090   12.07345  -13.99858
       O     7.62274   11.80606  -14.69844
      H1     8.18447   11.46900  -15.38736
       H     2.67797    4.91611  -13.25199
       O     3.17961    5.71600  -13.18592
      H1     4.05697    5.53101  -13.55048

