93
frame 1 | Written by MDAnalysis XYZWriter (release 2.4.3)
       H    12.76531    2.65091  -17.52623
       O    13.61649    3.16600  -17.60052
      H1    14.30255    2.50472  -17.65622
       H    16.64197   -2.22401  -15.18197
       O    16.78397   -1.89049  -14.28430
      H1    17.52575   -1.24298  -14.21932
       H    12.99090   -1.07084  -18.03341
       O    13.79884   -0.80248  -17.57778
      H1    14.44344   -1.52547  -17.75761
       H    18.25373    4.20131  -17.38359
       O    18.16624    3.59832  -18.07994
      H1    18.76947    2.88859  -17.82342
       H    10.33014   -1.45568  -18.66835
       O    11.10412   -1.48515  -18.03007
      H1    11.33593   -2.45638  -18.16588
       H    16.78651   -3.13183  -12.93825
       O    16.82756   -3.83027  -12.27964
      H1    16.07491   -4.41689  -12.45125
       H     8.46184   -1.07564  -16.13058
       O     8.14455   -0.30874  -16.65012
      H1     8.02966    0.31553  -15.94654
       H    13.93381   -5.39810  -12.66076
       O    14.29062   -5.08429  -13.43177
      H1    13.50842   -4.78390  -14.02615
       H    11.92739   -4.07745  -14.81698
       O    12.19891   -4.78285  -15.37630
      H1    11.88590   -5.58904  -14.88790
       H    18.73170    0.63826  -13.69571
       O    18.83025   -0.08794  -14.28177
      H1    19.38461    0.17973  -15.03959
       H    10.00747   -2.73452  -11.91233
       O    10.36182   -3.49328  -12.35474
      H1    10.26109   -3.28361  -13.32072
       H    16.77475   -1.92502  -17.09302
       O    15.88255   -2.19142  -16.86435
      H1    15.97157   -3.17937  -16.73132
       H    13.55224   -4.93942  -18.94765
       O    14.25144   -5.62505  -18.97967
      H1    15.04329   -5.03012  -18.83692
       H    13.38218   -1.10284  -14.28453
       O    12.78610   -1.41024  -14.95435
      H1    13.30125   -1.24349  -15.77039
       H     9.63974   -1.84059  -14.41854
       O    10.29999   -2.33243  -14.86728
      H1    11.02077   -1.71380  -14.99509
       H    19.25371   -3.58907  -19.13101
       O    19.30563   -4.03989  -18.22943
      H1    19.96851   -3.44833  -17.77932
       H     9.01815    0.92115  -18.07254
       O     9.37807    1.48690  -18.77968
      H1     8.97767    2.32181  -18.65821
       H    13.56921    4.80181  -18.14924
       O    13.57511    5.79421  -18.02542
      H1    13.92816    6.23493  -18.78135
       H    14.80372    2.30953  -12.23919
       O    13.99513    1.74832  -12.37005
      H1    13.58037    2.08040  -13.17848
       H    16.99707    0.56969  -18.38042
       O    17.66611   -0.09627  -18.36766
      H1    18.21551   -0.15249  -19.15786
       H    14.05587    3.38958  -15.52928
       O    14.92702    3.16848  -15.15242
      H1    15.16912    2.41449  -15.69689
       H    10.40246    2.12915  -17.27529
       O    10.99883    2.61432  -16.70703
      H1    10.74688    3.49809  -16.67817
       H     9.75244    1.84923  -12.24871
       O    10.19237    1.08123  -12.60875
      H1    10.86453    1.33475  -13.26476
       H     9.10863   -3.10907  -16.16236
       O     8.19678   -3.01480  -16.52193
      H1     7.76414   -3.56992  -15.80932
       H     9.63135   -4.72178  -19.28366
       O    10.31174   -5.41243  -19.19226
      H1    10.88444   -5.56201  -19.95249
       H    14.60313   -7.98387  -16.90153
       O    15.38538   -7.53869  -16.73246
      H1    15.16598   -6.59965  -16.88197
       H    17.32050   -4.77294  -16.59810
       O    16.36555   -4.90540  -16.38165
      H1    16.33661   -5.09667  -15.44333
       H    15.52979   -1.16406  -13.15385
       O    14.84141   -0.95262  -12.51320
      H1    14.70312    0.01204  -12.51851
       H    12.25302    0.44965  -14.81192
       O    12.07601    1.37063  -14.58687
      H1    11.80249    1.80813  -15.38000
       H    11.67582   -4.53527  -18.31901
       O    12.34033   -3.83966  -18.45345
      H1    12.81926   -3.80036  -17.60655
       H    16.51357    2.40461  -18.29038
       O    15.89978    1.69249  -18.03284
      H1    15.42106    1.44631  -18.85242

