93
frame 2 | Written by MDAnalysis XYZWriter (release 2.4.3)
       H    -4.70537   -3.46814  -11.29291
       O    -4.41066   -4.12349  -10.65413
      H1    -3.64690   -3.76883  -10.15686
       H     3.49491   -5.53653   -5.47022
       O     3.59769   -4.55922   -5.71062
      H1     3.66342   -4.54241   -6.68649
       H     0.68629  -11.84506   -6.62348
       O     0.11390  -12.39833   -7.15642
      H1    -0.42586  -12.96335   -6.55831
       H     0.22033   -7.24311   -1.06907
       O     0.65446   -7.05173   -1.89896
      H1     0.41915   -7.89741   -2.39981
       H     0.10415   -5.63643   -3.35254
       O    -0.06698   -4.64429   -3.44856
      H1     0.83977   -4.34946   -3.52897
       H    -2.93320   -5.68825   -5.36103
       O    -3.82125   -6.11423   -5.29025
      H1    -4.06760   -6.27575   -6.24570
       H     3.20235  -11.16543   -5.63843
       O     2.25214  -11.15505   -5.82284
      H1     1.85698  -11.65464   -5.11043
       H    -0.89333   -5.66192   -6.23055
       O    -1.25682   -4.84106   -5.80816
      H1    -0.78595   -4.88335   -4.93202
       H     0.73106   -3.35170   -9.54562
       O     0.46529   -4.06561   -8.95552
      H1     0.40779   -4.81414   -9.52805
       H     0.46073   -7.30224  -11.11112
       O    -0.26014   -6.75830  -10.63341
      H1    -0.64879   -6.31623  -11.40532
       H    -1.04337   -3.00753   -6.19481
       O    -0.88306   -2.10219   -6.01716
      H1    -1.56746   -1.74777   -6.56560
       H     3.10601  -10.05348   -8.64440
       O     3.39813   -9.14929   -8.52508
      H1     3.48033   -8.72614   -9.38530
       H     1.45674   -8.65193  -12.31252
       O     1.76162   -7.83109  -11.85603
      H1     2.66663   -7.96956  -11.54762
       H    -3.22251  -11.15315   -2.90740
       O    -2.78297  -11.21102   -3.79236
      H1    -2.88126  -10.34661   -4.18822
       H    -3.95033   -8.24016  -11.80749
       O    -4.43465   -8.55037  -11.08482
      H1    -3.99050   -7.96002  -10.43021
       H     2.28140   -3.34602   -5.11456
       O     1.68916   -2.72994   -4.61416
      H1     0.98882   -2.57782   -5.24700
       H    -1.54941   -3.47712   -9.03933
       O    -2.35579   -3.07335   -9.21845
      H1    -2.75847   -2.88604   -8.35466
       H     2.73411  -12.06212   -8.07141
       O     2.75186  -11.77373   -8.96789
      H1     1.79290  -11.52961   -8.99736
       H     3.95757   -7.16292   -4.40223
       O     3.01770   -6.92795   -4.54647
      H1     2.59111   -7.43524   -5.22355
       H     2.53084   -8.46825   -7.02822
       O     1.79874   -8.47317   -6.38967
      H1     1.87250   -9.32940   -5.91954
       H    -0.92516  -11.06019  -10.31278
       O     0.01470  -11.29048  -10.10167
      H1     0.11192  -12.22619  -10.13523
       H     2.76892   -8.48259   -1.48025
       O     2.78746   -9.36156   -1.89647
      H1     2.76841   -9.21619   -2.86033
       H    -5.39422   -5.80907   -8.36293
       O    -4.67286   -6.28350   -7.93647
      H1    -4.19072   -6.72668   -8.64272
       H    -3.03246  -12.16604   -7.12745
       O    -3.85610  -12.47637   -7.51601
      H1    -4.47140  -11.72072   -7.54410
       H    -0.87200  -10.83516   -8.01544
       O    -1.70948  -10.39305   -7.76376
      H1    -1.73107  -10.16668   -6.81348
       H    -1.55301   -8.30949   -5.55794
       O    -2.17723   -8.66812   -4.97450
      H1    -2.81672   -7.92820   -4.87678
       H     0.28743   -7.70271   -7.08391
       O    -0.55229   -7.23757   -6.99293
      H1    -1.07103   -7.32876   -7.81487
       H    -1.62828   -7.56257   -9.93058
       O    -2.28588   -7.71848   -9.20002
      H1    -2.06172   -8.63260   -8.91892
       H     0.02809  -10.08435   -2.87880
       O    -0.02968   -9.29626   -3.49556
      H1    -0.93044   -9.21926   -3.91729
       H     3.78125   -3.00522   -8.32053
       O     3.58223   -3.97888   -8.32079
      H1     2.65877   -4.16026   -8.19272
       H    -4.57731   -4.55921   -5.78803
       O    -5.16469   -3.81746   -5.80973
      H1    -5.46595   -3.78933   -6.70967

