93
frame 1 | Written by MDAnalysis XYZWriter (release 2.4.3)
       H   -18.94232   -0.79436   -4.79771
       O   -18.78243    0.06658   -5.25009
      H1   -18.65173    0.59819   -4.40296
       H   -19.69592    1.63238   -9.86840
       O   -19.13512    2.21076   -9.31141
      H1   -19.83630    2.78427   -8.98185
       H   -16.82003    9.36632   -5.84640
       O   -17.01940    9.84856   -5.03497
      H1   -17.18161    9.19076   -4.36844
       H   -14.37732    0.98409   -6.09171
       O   -13.56121    0.46916   -5.98350
      H1   -13.06305    0.64570   -6.74132
       H   -14.23098    6.29587   -1.97940
       O   -14.25615    6.67992   -2.88509
      H1   -14.07357    7.61156   -2.63862
       H   -17.36012    4.72521  -10.71531
       O   -18.29509    4.38965  -10.61610
      H1   -18.30169    3.64145  -10.02369
       H   -14.65133    2.08647  -12.01295
       O   -15.20108    2.62458  -11.34793
      H1   -16.10820    2.47996  -11.64911
       H   -12.74025    1.71334   -8.43636
       O   -11.94654    1.68187   -7.82023
      H1   -11.23978    1.48378   -8.42341
       H   -14.38259    3.70738  -10.32435
       O   -13.80842    4.31941   -9.81972
      H1   -13.97619    5.24723  -10.05809
       H   -19.41128   -2.27234   -7.19655
       O   -18.47132   -2.14227   -7.36385
      H1   -18.31008   -1.19791   -7.34813
       H   -16.17699    4.33056   -3.93048
       O   -16.38737    5.24976   -4.16268
      H1   -15.51581    5.61917   -4.14563
       H   -17.26968    6.56731   -3.04513
       O   -17.52880    7.49424   -2.85874
      H1   -17.11124    7.65819   -1.98863
       H   -17.99685   -2.63574   -5.75378
       O   -18.37230   -2.65530   -4.82377
      H1   -17.53445   -2.63375   -4.34164
       H   -14.59353    7.68978   -9.71741
       O   -15.56128    7.85594   -9.62012
      H1   -15.96585    7.22363  -10.26954
       H   -13.92591    5.59008   -6.94485
       O   -13.58124    4.63674   -6.93376
      H1   -13.34198    4.38732   -7.84495
       H   -16.25964    2.48867   -7.29483
       O   -15.27879    2.40277   -7.10931
      H1   -15.00789    3.34867   -7.14828
       H   -19.47576   -1.72911  -10.57237
       O   -18.75402   -2.31724  -10.27376
      H1   -18.70010   -2.30747   -9.28869
       H   -17.78716    7.70080   -7.74739
       O   -16.98725    7.95262   -7.26549
      H1   -16.37895    8.08607   -8.00003
       H   -18.13218    0.43014   -6.70657
       O   -17.68455    0.40569   -7.64244
      H1   -18.26221    0.93703   -8.19253
       H   -18.41501    4.10201  -12.80899
       O   -18.59061    4.36475  -13.71520
      H1   -19.21123    5.16603  -13.66127
       H   -17.83967    4.84665   -0.16725
       O   -17.61542    4.69953   -1.07506
      H1   -18.35295    5.15245   -1.56505
       H   -14.39431    1.48742  -10.26981
       O   -14.26724    0.89901   -9.48779
      H1   -14.95364    1.17148   -8.87755
       H   -16.46768    6.13039  -12.44538
       O   -16.84247    6.35441  -11.53166
      H1   -17.70412    6.71629  -11.61371
       H   -12.26904    2.02184   -5.16011
       O   -12.31119    2.84653   -4.69385
      H1   -12.77263    3.47156   -5.31070
       H   -18.99765    8.46069   -3.16184
       O   -19.91193    8.67594   -3.42992
      H1   -20.21947    9.31816   -2.75676
       H   -17.48003    4.17694   -5.76492
       O   -17.87003    3.37392   -6.14892
      H1   -18.76278    3.62775   -6.36228
       H   -13.78705    2.68692   -3.81469
       O   -14.73787    2.76764   -3.73317
      H1   -15.00073    1.84393   -3.88594
       H   -17.53905    2.83956   -0.70252
       O   -17.84810    1.98162   -0.41719
      H1   -17.07319    1.38829   -0.25448
       H   -18.23536    2.26557   -2.51223
       O   -18.70754    2.27870   -3.34588
      H1   -18.31846    2.95753   -3.91914
       H   -14.65761    4.47334   -0.09814
       O   -14.81831    5.28875   -0.59495
      H1   -15.69578    5.15072   -0.96146
       H   -14.22214    7.59260   -7.57625
       O   -14.41484    7.09379   -6.74184
      H1   -15.37800    7.09775   -6.64598

