93
frame 2 | Written by MDAnalysis XYZWriter (release 2.4.3)
       H     4.17850   12.41199   18.61441
       O     4.26935   11.48286   18.38934
      H1     5.18188   11.17667   18.57053
       H     6.54494   12.44051   15.34472
       O     7.19328   12.70750   16.00317
      H1     7.72704   11.93665   16.17037
       H    10.38635    6.35434   17.21737
       O     9.99078    7.17765   17.35469
      H1    10.57690    7.82919   16.99883
       H    11.96833   19.91410   14.64060
       O    12.08721   19.40690   13.83167
      H1    12.37407   20.00410   13.13279
       H    11.46360   13.13438   15.77586
       O    11.07818   12.49027   16.48050
      H1    10.97819   13.01275   17.31176
       H    14.23934   13.95487   17.46493
       O    13.80915   14.42608   18.21337
      H1    13.76453   13.77436   18.90598
       H     9.62951   11.35399   16.82453
       O     8.85429   10.85946   17.10475
      H1     8.88661   10.08016   16.50550
       H    10.77760    9.64834   13.89184
       O    11.18855    9.89233   13.06108
      H1    10.88065    9.25135   12.39777
       H    14.13314   20.11584   19.29424
       O    13.34471   19.60195   19.05696
      H1    13.44768   19.48542   18.12572
       H     6.38974   15.16647   12.56555
       O     7.27417   15.57005   12.78384
      H1     7.76430   14.98425   13.40699
       H    11.41215   14.83052   14.52893
       O    11.84013   13.94815   14.49119
      H1    12.13185   13.78307   13.56845
       H     9.91146    7.78883   15.03133
       O     9.60143    8.67014   15.03008
      H1     8.70691    8.58149   14.63825
       H    13.47236   17.38160   16.34672
       O    13.46423   18.36597   16.45323
      H1    14.07203   18.76375   15.87077
       H    11.69084   14.90626   18.83189
       O    10.84468   14.46461   18.75949
      H1    10.18340   15.17762   18.49526
       H     9.67563   14.36311   14.79138
       O     9.02050   13.82226   14.32311
      H1     8.57591   13.47480   15.06562
       H     4.41367   15.11396   15.67258
       O     4.68566   15.77284   16.36538
      H1     5.20118   15.26307   17.02140
       H     6.59821   13.79544   17.35710
       O     6.44899   14.48948   17.99398
      H1     6.52995   14.07585   18.85143
       H     9.73753   12.82933   12.98087
       O     9.80583   12.26252   12.12929
      H1    10.42601   11.55731   12.36628
       H    15.31859   15.83286   12.16291
       O    14.38501   15.68496   12.41940
      H1    14.34164   14.75057   12.42233
       H    18.11240   11.82202   17.87592
       O    17.30363   11.32583   17.69763
      H1    17.07129   11.39854   16.79162
       H     8.69060   16.88157   17.49383
       O     8.79145   16.04276   17.95869
      H1     8.04904   15.54043   17.60959
       H     7.04309   16.89889   14.19169
       O     6.84342   17.27816   15.07591
      H1     6.02020   16.76895   15.41679
       H     8.03988   18.06182   15.92850
       O     8.79149   18.28390   16.53178
      H1     8.52913   19.09198   16.97687
       H    14.84664   15.81935   14.25214
       O    14.58554   15.61703   15.18756
      H1    13.74840   15.19148   14.96506
       H     7.42079    6.95559   18.60658
       O     7.95347    7.58427   19.12929
      H1     8.71966    7.67563   18.56758
       H     6.96684    9.29209   18.93598
       O     6.82648   10.20682   18.66498
      H1     7.61049   10.39139   18.06709
       H    15.61770   14.55739   16.02861
       O    16.18145   13.78840   16.28275
      H1    16.20951   13.64410   17.23923
       H    12.44692   13.26512   11.64683
       O    13.11898   13.12639   12.34082
      H1    13.18138   12.15103   12.19957
       H    10.08436   17.22278   13.75672
       O    10.40566   16.50167   14.31161
      H1    10.03752   16.78753   15.14969
       H    15.47451   10.69135   18.58006
       O    15.01053   10.62026   19.39672
      H1    15.53615   11.10224   20.03855
       H    11.91033   10.78412   17.31816
       O    12.23981    9.88132   17.47169
      H1    12.84756    9.96894   18.16750

