93
frame 1 | Written by MDAnalysis XYZWriter (release 2.4.3)
       H     5.56383    3.50708   10.56286
       O     4.69198    3.36585   10.99112
      H1     4.69938    2.50897   11.50292
       H     2.81476    3.54855    8.42766
       O     3.75078    3.67551    8.29300
      H1     4.13465    3.53488    9.19941
       H     3.43254   -3.13363   12.17027
       O     3.54314   -3.94179   12.65775
      H1     2.63719   -4.05803   12.90261
       H     7.41554   -2.35038   11.69165
       O     7.05106   -1.81283   10.94070
      H1     6.53382   -2.50486   10.49962
       H     0.10460   -0.18731   14.38068
       O    -0.23949    0.36020   13.65804
      H1    -0.62965    1.18909   14.07529
       H     4.99464   -3.98110   16.17567
       O     5.27040   -3.57997   15.32879
      H1     4.55389   -3.65902   14.68002
       H     3.55098    2.50350   14.18371
       O     4.46260    2.08819   14.18991
      H1     4.71073    2.17108   15.12537
       H     5.18829    2.28568   17.44388
       O     5.65587    1.90597   16.62849
      H1     6.53241    1.57253   16.81135
       H    -0.53762    1.82346   16.45454
       O    -0.65778    2.74676   16.20059
      H1    -1.06876    3.14705   16.99659
       H     2.74922   -1.03444   10.25275
       O     3.23218   -0.83549    9.41714
      H1     4.08840   -0.80415    9.84755
       H     3.33255   -0.88726   15.16778
       O     3.35647   -0.74349   16.11698
      H1     4.16543   -0.30588   16.30967
       H     9.80653    0.35838   13.20346
       O     8.92881    0.27738   13.60701
      H1     8.19289    0.83209   13.22077
       H     1.68739    0.08107   16.37456
       O     0.72359    0.18015   16.33123
      H1     0.38983   -0.39268   17.02441
       H    -0.31539   -0.94737   11.95542
       O     0.37657   -1.18296   11.33815
      H1     0.11794   -1.56529   10.53014
       H     6.69754    2.68631   13.34862
       O     6.99112    2.26296   12.56417
      H1     6.24508    1.64514   12.24939
       H     3.71792    2.02807   19.04722
       O     3.77063    2.81220   18.48942
      H1     3.55643    3.54351   19.04227
       H     8.30104    4.47676   15.38271
       O     7.39341    4.17597   15.58944
      H1     6.88193    4.91912   15.29420
       H     1.41790    5.51182   13.21730
       O     1.70943    6.39483   13.53472
      H1     1.93247    6.17665   14.43259
       H     1.70320    6.09798   16.99715
       O     2.21932    5.68414   16.30344
      H1     2.17577    4.72610   16.50971
       H     1.18188    2.66219   16.39962
       O     2.16386    2.80395   16.18229
      H1     2.75632    2.85267   16.97912
       H     4.02488    4.71880   12.25729
       O     4.14905    5.38806   12.95169
      H1     3.28859    5.80974   13.03930
       H     5.87159   -0.67425   11.46164
       O     5.24114    0.08566   11.39158
      H1     4.68478   -0.09730   12.21318
       H     1.41433    1.36013    8.50458
       O     1.86930    1.77037    9.30346
      H1     2.68882    1.24894    9.26076
       H     1.01851    0.89448   12.38799
       O     1.63375    1.53455   12.09477
      H1     1.67004    1.42880   11.12781
       H     9.88443    3.21692   11.80851
       O     9.18070    3.46916   11.19923
      H1     8.30428    3.20216   11.58551
       H     7.23640   -0.87162   15.98894
       O     6.30855   -1.10410   16.16927
      H1     6.12196   -1.88959   15.66523
       H     3.91663    0.46803   13.77554
       O     3.37448   -0.21787   13.37193
      H1     2.75922    0.29284   12.79253
       H     9.14643    0.48659   15.34045
       O     9.07933    0.28242   16.28975
      H1     9.77129    0.83992   16.68604
       H    -0.57678    3.62830   11.92864
       O     0.18984    3.72308   12.52675
      H1     0.75711    2.91242   12.37041
       H     0.87935   -2.81057   15.36024
       O     1.68642   -3.04364   15.86660
      H1     2.24654   -2.27611   15.90039
       H     6.06984   -1.45097   19.28046
       O     5.78971   -2.13422   18.69329
      H1     5.98835   -1.81802   17.80354

