93
frame 0 | Written by MDAnalysis XYZWriter (release 2.4.3)
       H   -15.75084  -13.80782    8.57393
       O   -15.68414  -13.93624    7.62819
      H1   -15.67845  -13.03334    7.26725
       H   -16.88713  -16.41341   17.15747
       O   -16.05264  -16.44954   16.67036
      H1   -15.95556  -17.37383   16.36904
       H   -10.49317  -15.75235   12.43743
       O   -11.30787  -15.36414   12.81452
      H1   -11.73240  -14.84968   12.10141
       H   -17.69841  -10.54162   10.55703
       O   -17.49722  -11.27124   11.15353
      H1   -18.12638  -11.25788   11.89438
       H   -15.58845  -14.41640   19.34221
       O   -16.34856  -14.02402   18.88837
      H1   -16.06585  -13.69048   18.00135
       H   -11.84301  -14.07578   16.67757
       O   -11.25358  -13.72363   17.38093
      H1   -11.52638  -12.80841   17.67661
       H   -15.10884  -12.32848   16.35889
       O   -15.73549  -13.01344   16.54552
      H1   -15.53074  -13.62192   15.79296
       H   -12.84932  -11.12271    9.99125
       O   -12.12453  -11.59649   10.48050
      H1   -12.49642  -12.46410   10.72876
       H   -19.01799  -16.89227    9.59102
       O   -18.60904  -16.63528   10.41594
      H1   -18.32612  -15.74909   10.24393
       H   -12.83029  -15.26884    8.48695
       O   -12.15221  -15.83929    8.92322
      H1   -12.62555  -16.45675    9.52132
       H   -13.61827  -11.66476   14.94317
       O   -13.29832  -12.30967   14.35236
      H1   -12.31676  -12.14795   14.30311
       H   -17.50942  -14.03763    7.16759
       O   -18.42577  -13.96377    6.94430
      H1   -18.59744  -14.54095    6.17503
       H   -14.60663  -11.53522   13.03583
       O   -14.96842  -10.85829   12.41427
      H1   -15.89241  -11.08749   12.10527
       H   -12.47011  -17.40092   12.77263
       O   -12.42412  -17.83631   13.66884
      H1   -11.61829  -17.44726   14.06156
       H   -17.67346  -12.99055   16.20906
       O   -18.56532  -13.16323   16.56500
      H1   -19.11694  -12.38953   16.34644
       H   -20.05178  -15.18297   13.51849
       O   -19.32081  -14.53179   13.62964
      H1   -19.39715  -14.34904   14.53031
       H   -15.43815  -15.91316   11.52766
       O   -15.47978  -14.93792   11.69382
      H1   -15.92239  -14.89089   12.61617
       H   -14.76196  -11.67648   10.51070
       O   -14.89650  -11.61814    9.52383
      H1   -14.63943  -10.73919    9.23123
       H   -13.14472  -14.08904   14.95154
       O   -12.62645  -14.79503   15.25623
      H1   -12.04394  -15.00584   14.50504
       H   -19.41149  -18.56269   15.04208
       O   -18.76821  -18.74596   14.31435
      H1   -17.91334  -18.83282   14.76300
       H   -12.69643  -14.58372   10.32772
       O   -12.89600  -14.07376   11.08187
      H1   -13.75394  -14.36605   11.43534
       H   -14.32284  -16.37968   17.28381
       O   -13.44388  -16.73641   17.25811
      H1   -13.16243  -16.34782   16.41100
       H   -15.54078  -19.23611   15.80373
       O   -16.15935  -18.80701   15.17570
      H1   -15.77234  -19.10331   14.31776
       H   -18.07631  -13.35348    8.96686
       O   -18.14801  -13.58055    9.91096
      H1   -17.90400  -12.75253   10.39742
       H   -10.09736  -11.17734   12.76184
       O   -11.03398  -11.25799   13.08324
      H1   -11.49356  -11.04305   12.23672
       H   -13.98526  -13.79660    7.32618
       O   -13.09382  -14.09987    7.10165
      H1   -13.26746  -14.84228    6.51694
       H   -12.44117  -18.63814   10.48974
       O   -12.96898  -17.91169   10.88885
      H1   -13.84350  -18.32459   10.76885
       H   -18.70676  -10.41847   14.19452
       O   -18.43516   -9.79196   14.89754
      H1   -18.02292   -9.15126   14.28140
       H   -16.84424  -17.38076   10.74766
       O   -15.96032  -17.79141   10.95454
      H1   -16.11277  -18.76485   11.12999
       H   -17.58883  -14.77063   13.81187
       O   -16.78615  -14.65135   14.28830
      H1   -16.66021  -15.42824   14.88105
       H   -14.47601   -9.43905   13.16312
       O   -14.38510   -8.80807   13.88474
      H1   -13.59217   -8.24941   13.72355

