93
frame 1 | Written by MDAnalysis XYZWriter (release 2.4.3)
       H    -7.75662  -10.82828  -11.15854
       O    -7.26414  -10.40279  -11.90134
      H1    -6.43500  -10.11214  -11.51392
       H   -14.32583   -0.89109  -10.05988
       O   -14.24566   -1.85440   -9.99042
      H1   -14.26153   -2.17687  -10.88299
       H   -12.36427   -5.21067  -10.81334
       O   -13.01663   -4.69892  -10.23300
      H1   -12.50477   -4.08422   -9.63036
       H   -13.22333   -8.92572  -10.12056
       O   -13.55032   -9.31295  -10.93684
      H1   -14.50709   -9.35038  -10.90862
       H   -15.67514   -3.96137  -10.96244
       O   -16.18834   -4.66763  -10.53126
      H1   -16.78512   -4.14254   -9.98657
       H   -13.60537   -9.83835  -14.98532
       O   -14.22969   -9.89116  -14.21820
      H1   -15.00352   -9.41411  -14.49441
       H   -16.32512   -8.32063  -11.37954
       O   -16.46734   -9.08956  -10.78156
      H1   -17.28879   -8.94937  -10.32165
       H   -13.54642  -11.12663  -13.32860
       O   -12.99655  -11.58884  -12.70558
      H1   -13.11030  -11.10827  -11.84952
       H   -12.29986   -8.81803   -8.26862
       O   -12.01853   -8.09762   -8.82727
      H1   -12.85365   -7.69739   -9.03276
       H   -10.09678   -6.38940   -7.48836
       O   -10.16863   -7.27493   -7.12449
      H1   -10.75027   -7.72372   -7.72062
       H   -11.62638   -5.70568  -14.06508
       O   -11.51554   -4.77612  -14.27565
      H1   -10.89125   -4.64398  -15.01836
       H   -11.34048   -7.36675  -10.58112
       O   -11.36279   -6.71286  -11.29198
      H1   -11.56403   -7.12136  -12.10779
       H   -14.87702   -5.21242  -14.99599
       O   -15.63978   -4.98450  -14.37716
      H1   -15.80094   -5.82375  -13.92597
       H    -7.31680   -7.99426  -12.69810
       O    -8.14720   -7.57467  -12.57963
      H1    -8.03180   -6.74380  -13.04181
       H    -8.39833   -7.35617  -10.74560
       O    -8.41768   -6.89411   -9.90980
      H1    -7.49363   -7.08596   -9.57577
       H   -11.33105   -2.15818  -12.06301
       O   -10.87185   -3.02119  -11.95590
      H1   -11.16691   -3.57358  -12.67680
       H    -8.19443   -0.68171  -12.86573
       O    -8.34689   -1.57439  -13.20912
      H1    -8.83504   -2.07084  -12.55323
       H   -14.35191   -6.14858   -9.30458
       O   -14.31921   -6.59788   -8.47700
      H1   -13.78460   -6.01184   -7.91595
       H   -13.90645   -5.03323  -17.08437
       O   -13.89620   -5.66179  -16.36749
      H1   -12.98931   -5.93050  -16.15933
       H   -11.30295  -11.27034  -10.46654
       O   -11.83316  -11.41370   -9.63993
      H1   -12.24643  -12.29045   -9.88786
       H   -12.81604   -8.16652  -13.59649
       O   -12.14765   -7.54343  -13.92396
      H1   -11.41658   -8.13828  -14.11355
       H   -11.33121   -2.64347   -8.79854
       O   -12.26667   -2.78662   -8.46358
      H1   -12.90457   -2.23893   -8.97861
       H   -17.02442   -7.15142  -12.46960
       O   -16.11410   -7.10504  -12.25362
      H1   -16.12492   -6.31974  -11.67236
       H   -13.44121   -2.13318  -14.70294
       O   -12.87975   -2.61231  -15.36760
      H1   -12.29918   -3.21271  -14.83732
       H    -9.45642   -3.89236   -8.24231
       O    -9.65129   -4.83873   -8.15358
      H1    -9.23186   -5.32980   -8.83617
       H    -9.31036   -4.22547  -11.45536
       O    -8.44304   -4.63367  -11.50238
      H1    -8.55533   -5.51534  -11.09334
       H   -12.86007  -10.46520   -8.06726
       O   -13.33947  -10.11366   -7.30588
      H1   -14.25000  -10.24493   -7.50637
       H    -7.75355   -4.73150  -13.52829
       O    -7.03478   -5.15174  -14.03421
      H1    -7.42552   -5.39794  -14.88779
       H   -12.55089   -4.17410   -6.92179
       O   -12.58683   -5.07905   -6.60099
      H1   -11.70289   -5.43813   -6.90485
       H   -10.32098  -10.41860  -13.59244
       O   -10.06336   -9.58494  -13.93296
      H1    -9.39225   -9.26361  -13.27152
       H   -14.87316   -3.75466  -13.14291
       O   -14.42062   -3.35519  -12.38214
      H1   -13.80533   -4.02809  -12.05360

