93
frame 0 | Written by MDAnalysis XYZWriter (release 2.4.3)
       H     8.58106   -3.23862   16.69623
       O     8.66635   -2.79499   17.55066
      H1     8.80089   -3.58616   18.11655
       H     3.23599   -2.90999   12.08350
       O     3.46461   -3.46203   12.86255
      H1     2.60153   -3.87455   13.10779
       H     6.46742    4.70499   17.95214
       O     6.37948    5.53375   18.39909
      H1     5.88876    6.16156   17.80208
       H    -0.41895   -1.13328   17.86286
       O     0.46306   -1.02273   18.21892
      H1     1.07288   -1.48657   17.60977
       H     3.84118    6.42862   17.04926
       O     4.58478    7.03610   16.92766
      H1     4.14785    7.93129   16.81231
       H     0.26249   -0.73342   13.96960
       O     0.40834    0.21791   13.85257
      H1     0.34435    0.43426   14.81782
       H     3.92051   -3.62836   16.06121
       O     4.64842   -3.23642   15.56056
      H1     4.22424   -3.31168   14.69187
       H     6.43362    3.14151   14.28758
       O     5.65514    2.65462   14.59479
      H1     5.64715    2.75855   15.52738
       H     5.60784    1.78481   17.53411
       O     6.11697    2.46670   17.17204
      H1     6.95221    2.01030   17.11119
       H    -1.00676    2.32212   17.16499
       O    -1.00234    3.08200   17.84775
      H1    -1.68717    2.79278   18.51509
       H     3.29543    0.08551   15.20372
       O     2.75476   -0.04646   16.00127
      H1     3.22149    0.22276   16.78020
       H    10.20043   -0.44888   14.31418
       O     9.30654   -0.32866   14.73783
      H1     8.79500    0.20358   14.06833
       H     1.30436    0.88404   16.23801
       O     0.34233    1.13291   16.31898
      H1     0.10089    0.46265   16.97911
       H     4.23631    0.16819   18.63819
       O     3.99743    1.04460   18.27196
      H1     4.32110    1.67871   18.95651
       H     1.23946    6.20602   17.99805
       O     2.09783    5.88648   17.69102
      H1     1.88943    4.95538   17.96505
       H    12.01723   -1.56167   17.92772
       O    11.52650   -1.54644   17.10962
      H1    10.64943   -1.91914   17.30970
       H     0.93390    3.12370   18.32889
       O     1.78525    3.39721   18.62187
      H1     2.34479    2.69631   18.27028
       H     6.20676   -1.18170   11.44822
       O     6.02213   -0.29414   11.69760
      H1     5.19223   -0.14870   12.23174
       H     8.88591    3.05033   17.74928
       O     9.02114    3.69498   18.48144
      H1     8.27002    3.45361   19.05512
       H     0.59718   -4.22936   18.27321
       O     0.96839   -3.70720   19.03694
      H1     0.76735   -2.82698   18.70910
       H     1.54370    0.80871   12.41626
       O     2.23747    1.31020   11.96823
      H1     2.26750    0.88172   11.14571
       H    11.55099    1.35206   19.67275
       O    11.05238    0.92514   18.97518
      H1    11.71907    0.61912   18.36790
       H     7.00227   -1.33912   16.73618
       O     6.08211   -1.09545   16.96032
      H1     5.59900   -1.51538   16.27288
       H     2.67583   -4.19324   17.90652
       O     3.54549   -4.57198   17.96833
      H1     4.12865   -3.91202   18.33474
       H     5.00665   -6.64631   16.03615
       O     5.71240   -6.11200   15.66241
      H1     5.37906   -5.17022   15.63593
       H    -2.71193   -0.91930   18.43801
       O    -2.44409   -0.91048   17.46230
      H1    -3.28436   -0.74449   16.99612
       H     4.58052    1.46161   14.11782
       O     4.22554    0.63292   13.66334
      H1     3.46639    0.83807   13.07218
       H     9.05993    0.84084   16.16094
       O     8.97472    1.41833   16.94631
      H1     9.06295    0.87142   17.73707
       H     0.56446   -2.49939   14.62183
       O     1.25799   -2.87099   15.18966
      H1     1.99360   -2.25568   15.09998
       H    10.22051   -3.42461   14.39661
       O     9.41925   -3.16085   14.91031
      H1     9.37523   -2.21572   14.84170
       H     5.19873   -2.71804   19.42516
       O     5.74503   -3.25093   18.88020
      H1     5.99547   -2.60347   18.20220

