93
frame 0 | Written by MDAnalysis XYZWriter (release 2.4.3)
       H    -5.37141   11.60217  -13.44671
       O    -5.06520   12.12850  -12.73392
      H1    -5.18821   11.53121  -12.00739
       H    -4.11233   14.56976  -10.47154
       O    -4.32906   14.49814  -11.43600
      H1    -4.36745   13.62225  -11.79373
       H    -6.38927   14.16697  -15.43726
       O    -6.75696   14.30502  -16.28859
      H1    -6.14847   14.98647  -16.59244
       H    -1.36178   18.04914  -13.87791
       O    -0.89617   18.88888  -13.96269
      H1     0.02747   18.61248  -14.12831
       H    -5.00431   18.62971  -11.24919
       O    -5.87595   18.78131  -11.68608
      H1    -5.90859   19.66542  -12.03353
       H    -6.17297   19.64596  -15.14035
       O    -5.38677   19.28035  -14.69178
      H1    -5.45709   18.30656  -14.86058
       H   -10.03627   15.66109  -10.24743
       O   -10.68486   15.56933  -10.96227
      H1   -10.40907   16.02745  -11.77329
       H    -4.32502   16.58567  -17.94512
       O    -4.36129   15.61672  -17.86775
      H1    -4.88124   15.48094  -18.71951
       H    -2.89351   19.08003  -10.97540
       O    -3.31011   18.31511  -10.53003
      H1    -3.85866   18.67413   -9.82747
       H    -8.32624   16.32494  -18.40511
       O    -7.46182   16.76316  -18.45784
      H1    -7.06698   16.55246  -19.32147
       H    -9.39707   10.57766  -16.16492
       O    -9.66432   11.21620  -15.49185
      H1   -10.29774   10.76566  -14.96445
       H   -11.12083   16.12764  -14.53797
       O   -11.48164   15.62388  -15.30746
      H1   -10.79388   15.04655  -15.66755
       H    -7.17193   18.14463  -17.51911
       O    -6.94284   18.99140  -17.10638
      H1    -7.42347   19.51913  -17.76923
       H    -6.01351   13.92205  -10.37452
       O    -6.81168   13.87947   -9.83648
      H1    -7.57008   13.49288  -10.39732
       H   -10.91986   17.77347  -12.90968
       O   -10.71730   16.91253  -13.30930
      H1    -9.76186   16.80360  -13.33639
       H    -7.00792   16.31543  -13.56537
       O    -7.93110   16.16967  -13.81383
      H1    -8.10935   16.83882  -14.55514
       H    -8.39651   18.42740  -16.12655
       O    -8.99865   17.77702  -15.71799
      H1    -9.71327   18.23486  -15.29862
       H   -12.74129   16.74264  -17.82013
       O   -11.95900   17.21232  -17.48873
      H1   -11.95398   16.80858  -16.59319
       H    -8.43819   16.76277   -8.50998
       O    -8.63754   16.14654   -9.20285
      H1    -7.84597   15.53138   -9.15714
       H    -8.75213   14.19825  -16.30056
       O    -9.59954   13.88937  -16.63050
      H1    -9.61232   13.01613  -16.24236
       H    -7.63815   13.29871  -19.45506
       O    -6.86290   12.94414  -18.93619
      H1    -6.86883   13.33255  -18.08395
       H    -5.11755   18.82172  -17.53344
       O    -4.39883   18.31865  -17.96235
      H1    -3.61487   18.49173  -17.43590
       H    -2.47686   15.22447  -16.90246
       O    -1.76289   15.38464  -16.25671
      H1    -2.11307   15.77487  -15.46348
       H    -6.80079   13.16051  -13.01807
       O    -7.68502   13.42598  -13.31244
      H1    -7.57745   14.36600  -13.57499
       H   -12.31857   18.13819  -11.19294
       O   -12.33705   18.79245  -11.91710
      H1   -13.20054   19.15571  -12.02640
       H    -3.59741   14.45539   -7.95954
       O    -3.58176   14.63919   -8.90170
      H1    -2.76869   15.17849   -9.03685
       H    -1.73860   15.71411  -13.25520
       O    -2.07781   16.57203  -13.43184
      H1    -2.93175   16.58442  -12.91180
       H    -8.52176   13.06190  -11.78431
       O    -9.05322   12.90426  -11.01816
      H1    -9.54842   13.76300  -11.03779
       H    -7.87018   11.19253  -13.02959
       O    -7.82031   10.28183  -12.63888
      H1    -7.36599   10.36932  -11.74754
       H    -4.94304   15.95095  -12.44592
       O    -5.23382   16.67005  -12.99226
      H1    -5.64133   17.37850  -12.42601
       H    -6.52356   11.82643  -10.06291
       O    -6.09798   11.11444  -10.55224
      H1    -6.45448   10.38597  -10.05437

