93
frame 2 | Written by MDAnalysis XYZWriter (release 2.4.3)
       H     3.33044   -3.16217   11.35456
       O     3.90873   -3.57971   12.01610
      H1     3.22299   -3.98680   12.58521
       H    -1.02762   -1.34958   18.67044
       O    -0.59658   -2.09978   18.29577
      H1    -1.17751   -2.84898   18.30407
       H     0.60112   -7.37270   14.28822
       O     1.28094   -6.78909   14.68998
      H1     2.10443   -7.06375   14.31501
       H    -0.71965   -0.62591   14.13081
       O    -0.90165   -0.15100   13.33689
      H1    -1.48254    0.62983   13.58194
       H     4.49813   -3.42799   14.81312
       O     5.46005   -3.39929   14.74572
      H1     5.63317   -3.17619   13.79862
       H     3.81309    0.28609   17.44533
       O     4.05057    0.20559   16.54220
      H1     4.83847   -0.34501   16.51003
       H     0.07831    0.69215   16.34726
       O     0.18047    1.61183   16.18016
      H1    -0.30159    1.99317   16.91365
       H    -0.46975   -4.30545   13.56076
       O    -1.38234   -4.58649   13.72290
      H1    -1.73324   -4.07995   14.51646
       H    -3.34060   -8.61360   16.99695
       O    -3.26743   -8.83051   17.94845
      H1    -2.40058   -8.58262   18.22445
       H     2.68318   -0.31939   13.97735
       O     2.50464   -0.97849   14.68210
      H1     3.04944   -0.68725   15.41616
       H     0.95917   -1.14185   15.49971
       O     0.02258   -1.37462   15.66884
      H1    -0.06133   -1.68814   16.57014
       H     2.91740    1.36472   19.94998
       O     3.13053    1.57688   19.05281
      H1     4.06367    1.76957   19.16012
       H     8.01253   -1.30818   18.22136
       O     8.99040   -1.32775   18.40817
      H1     9.45967   -1.84518   17.71488
       H    -1.38039    1.20605   19.24764
       O    -1.68971    0.30141   19.33203
      H1    -1.48660    0.14660   20.25711
       H     4.99022   -8.11103   17.75187
       O     4.08379   -7.79685   17.79135
      H1     4.08234   -7.00880   17.24063
       H    -0.99067   -5.13579   19.26409
       O    -1.84379   -4.87503   18.85174
      H1    -1.54903   -4.88728   17.94914
       H     1.57950    2.55080   16.47479
       O     2.26339    3.20871   16.87480
      H1     2.62479    2.89582   17.75231
       H     1.29078   -5.40304   12.04205
       O     1.41941   -4.82347   12.80335
      H1     1.49265   -5.40893   13.56062
       H    -0.49597   -7.15557   17.65130
       O    -0.53232   -8.05319   17.94360
      H1     0.23030   -8.57060   17.57140
       H    -3.19990   -4.13517   16.16606
       O    -2.37858   -3.61863   16.19694
      H1    -2.59332   -2.87004   16.71328
       H     5.34346    1.87018   18.17080
       O     5.56573    2.79281   18.10032
      H1     5.95852    3.05608   18.97919
       H    -0.52845   -4.89130   16.02397
       O    -0.02386   -5.39684   16.66505
      H1     0.62311   -5.95006   16.14415
       H     1.19852   -4.31637   19.45383
       O     1.72925   -3.58442   19.12940
      H1     1.08746   -2.95205   18.75843
       H     7.23599   -0.95744   16.05853
       O     6.46083   -1.35037   16.41869
      H1     6.24270   -2.14905   15.91811
       H     3.39935   -4.49115   16.62358
       O     4.06166   -5.00965   17.14973
      H1     4.52533   -4.33628   17.64153
       H    -4.06211   -7.35785   18.34198
       O    -4.50074   -6.48059   18.50508
      H1    -3.77472   -6.03197   19.03602
       H     5.46923   -6.56209   14.59440
       O     6.29046   -6.06782   14.84792
      H1     6.06355   -5.12376   14.89927
       H    -3.21222   -0.60212   17.97124
       O    -3.63535   -1.19127   17.31314
      H1    -4.31066   -0.59537   16.96960
       H     1.53659   -3.72595   16.68194
       O     2.00095   -3.58668   15.85229
      H1     1.60579   -2.80545   15.39132
       H     1.42466   -8.30751   16.02308
       O     1.78512   -9.00999   16.67916
      H1     2.58221   -8.61842   17.07722
       H     4.59209   -3.02497   19.43411
       O     5.04311   -2.70938   18.63472
      H1     5.26473   -1.78691   18.92580

