93
frame 2 | Written by MDAnalysis XYZWriter (release 2.4.3)
       H    -4.99254   -8.57245    5.65829
       O    -5.71395   -7.97095    5.34015
      H1    -6.50881   -8.37992    5.65714
       H    -1.18637  -10.11973    0.59020
       O    -1.37850  -10.87807    0.00528
      H1    -0.86580  -11.54528    0.46294
       H     1.19034   -7.08889    1.81994
       O     1.00302   -7.35747    0.92237
      H1     1.86598   -7.28886    0.45644
       H    -6.43159   -8.04583    1.80050
       O    -7.26360   -7.55859    1.50243
      H1    -7.57735   -7.85139    0.61746
       H     0.22578  -12.65105    5.28582
       O    -0.06074  -11.79044    5.54197
      H1     0.73829  -11.32872    5.87549
       H    -0.84818   -5.84855    6.70545
       O    -0.23481   -6.51269    6.28200
      H1    -0.47392   -7.37486    6.66845
       H     1.84677   -5.66022    3.29601
       O     1.60240   -6.54804    3.60686
      H1     1.14219   -6.45481    4.43949
       H    -7.01959  -12.09379    5.61271
       O    -7.00234  -11.62028    4.77111
      H1    -7.70588  -11.95202    4.19870
       H     3.10116   -9.96822    1.39306
       O     2.94718  -10.47146    0.60111
      H1     3.00590   -9.87757   -0.16831
       H    -3.80136  -10.16881    6.52516
       O    -3.57702   -9.86796    5.62972
      H1    -3.57585  -10.66499    5.09821
       H    -0.05781  -14.22919    4.26660
       O     0.60543  -14.27692    4.94572
      H1     1.50555  -14.31065    4.62385
       H    -4.91401  -11.27461    0.60162
       O    -4.75172  -11.11437    1.53905
      H1    -4.97410  -11.91126    2.05497
       H    -2.48522   -7.54266    0.17803
       O    -1.81231   -8.17943    0.40386
      H1    -1.09100   -7.62882    0.70827
       H     0.81380  -11.16215    8.45248
       O    -0.08178  -11.35315    8.54029
      H1    -0.38397  -11.70006    7.67058
       H    -1.92892   -9.46015    6.82558
       O    -1.31933   -8.88532    7.24413
      H1    -0.72829   -9.38026    7.80724
       H    -3.01346  -14.55945    5.39119
       O    -3.12557  -13.62340    5.28429
      H1    -3.79823  -13.57588    4.59013
       H    -5.83631  -12.43146    3.89360
       O    -5.18923  -13.06785    3.42642
      H1    -5.63489  -13.92135    3.25098
       H    -1.30984  -10.41423    3.02500
       O    -2.12406  -10.93476    3.10589
      H1    -2.64670  -10.52694    2.41669
       H    -1.97178  -15.51835    0.95399
       O    -1.91213  -15.94553    1.79478
      H1    -1.82040  -15.14705    2.35318
       H    -4.64932  -10.96972   -1.20149
       O    -5.24016  -11.73950   -1.07786
      H1    -4.67572  -12.50444   -0.85965
       H    -0.15689  -10.24178    4.17838
       O     0.11504   -9.67017    3.40275
      H1    -0.31070   -8.81541    3.56716
       H     2.53585  -11.03026    7.20486
       O     1.87372  -10.33478    7.00894
      H1     2.44152   -9.54495    6.83246
       H     1.83649   -9.61941    3.07276
       O     2.81576   -9.66550    3.18190
      H1     2.97845  -10.56629    3.59733
       H    -2.23553   -7.69302    4.32106
       O    -1.92637   -7.63536    3.43073
      H1    -2.72965   -7.71974    2.91327
       H     1.62673  -11.86468    0.81875
       O     0.84130  -12.28068    1.11013
      H1     0.92543  -13.21295    0.76401
       H    -1.50817  -12.81862    3.00351
       O    -1.31283  -13.68592    3.30531
      H1    -1.82022  -13.60473    4.14269
       H    -4.36085  -14.04177    8.58336
       O    -4.79194  -13.53378    7.87648
      H1    -4.14835  -13.56299    7.14800
       H    -5.19029   -9.62876    2.30217
       O    -5.19664   -8.74470    2.68375
      H1    -5.53234   -8.73336    3.56600
       H    -3.39764   -4.82929    3.16178
       O    -2.46769   -4.93912    3.13793
      H1    -2.27253   -5.91152    3.15068
       H    -3.78253   -8.95819   -1.28659
       O    -3.39138   -9.78366   -1.49930
      H1    -2.66069  -10.03047   -0.92209
       H     0.07833  -11.08320   -0.96525
       O     0.67133  -11.49561   -1.71041
      H1     1.54121  -11.13231   -1.56059

