93
frame 2 | Written by MDAnalysis XYZWriter (release 2.4.3)
       H   -18.50657  -12.33154  -10.89199
       O   -17.63562  -12.03478  -11.15727
      H1   -17.57822  -11.09699  -10.97721
       H   -11.34851  -14.50481  -11.69749
       O   -11.22343  -13.79099  -11.04796
      H1   -10.52344  -14.08888  -10.45083
       H   -14.07623  -16.06378   -8.06292
       O   -14.90443  -16.26546   -7.62228
      H1   -15.60945  -15.95792   -8.21681
       H   -13.74804   -9.36267  -10.78597
       O   -14.28443   -9.57534  -11.56565
      H1   -15.18721   -9.30413  -11.35994
       H   -14.85889   -5.79100   -3.22134
       O   -15.60936   -5.66100   -3.81710
      H1   -15.62156   -6.43709   -4.37800
       H   -10.05714  -11.38382   -8.71776
       O    -9.33138  -11.43326   -8.00071
      H1    -9.38830  -12.24775   -7.54236
       H   -17.81440  -15.24414   -8.26247
       O   -17.13194  -15.46484   -8.90067
      H1   -16.82015  -14.58796   -9.20336
       H   -15.42770   -5.54532   -8.18444
       O   -16.20600   -5.04243   -8.35533
      H1   -16.01745   -4.13864   -8.18553
       H   -17.02016   -8.20707  -11.32245
       O   -16.95303   -9.12558  -11.01014
      H1   -17.01326   -9.00116  -10.04263
       H   -13.12180  -11.73211  -13.46042
       O   -13.92335  -11.81452  -12.92397
      H1   -13.75336  -11.17887  -12.24951
       H   -12.59642   -9.39048   -8.71791
       O   -12.92739   -8.65389   -9.29076
      H1   -13.38790   -8.00873   -8.70895
       H   -11.36038   -7.29081   -7.32252
       O   -10.39464   -7.25830   -7.28634
      H1   -10.12330   -8.20545   -7.27237
       H   -18.86588   -7.73123   -8.15862
       O   -18.18091   -8.31900   -7.85688
      H1   -18.17913   -8.25201   -6.88507
       H   -11.57799   -8.18999  -10.63333
       O   -11.03531   -7.56357  -11.13311
      H1   -11.37223   -7.75397  -12.06794
       H   -16.06750   -8.49502   -5.04403
       O   -15.37711   -7.97488   -5.52327
      H1   -15.44535   -8.32019   -6.40041
       H   -13.18734   -6.08653   -8.57808
       O   -13.66783   -6.31903   -7.77950
      H1   -13.28450   -5.71568   -7.07786
       H   -13.03333   -9.54572   -5.17542
       O   -13.02966   -8.88729   -4.48638
      H1   -13.91207   -8.53249   -4.68310
       H   -11.66671   -7.97322   -3.38045
       O   -10.79264   -7.93007   -2.93532
      H1   -10.10422   -8.11892   -3.58333
       H   -17.71447  -10.96096   -5.34836
       O   -17.27147  -10.82719   -4.48280
      H1   -17.68932  -10.05427   -4.18399
       H   -11.23054  -10.82060  -10.94895
       O   -11.50110  -11.10718  -10.02901
      H1   -12.21971  -11.73982  -10.03754
       H   -16.23573  -12.30184   -4.41747
       O   -15.66557  -13.07166   -4.54955
      H1   -16.17336  -13.86299   -4.74870
       H   -12.82053  -11.59969   -3.10472
       O   -12.04668  -11.96423   -3.56674
      H1   -11.25972  -11.70493   -3.02718
       H   -19.18367   -7.84409   -4.91121
       O   -18.25174   -7.88175   -5.04495
      H1   -18.07086   -6.97267   -5.41413
       H   -12.51339  -14.95570   -6.00202
       O   -12.17218  -15.83502   -6.03445
      H1   -11.42187  -15.87647   -5.49396
       H   -13.23441  -11.50856   -6.53304
       O   -13.43212  -10.62796   -6.79883
      H1   -14.14773  -10.57316   -7.45694
       H   -15.41816  -11.30814   -9.09138
       O   -15.77639  -10.53675   -8.56250
      H1   -16.53285  -10.80170   -8.07312
       H   -14.47548  -13.88679   -9.32477
       O   -15.26206  -13.35180   -9.45203
      H1   -15.53456  -13.47651  -10.32967
       H   -10.85643  -10.22574   -5.15588
       O   -10.16716  -10.03927   -5.77535
      H1   -10.13081  -10.72300   -6.45493
       H   -12.24829  -14.50674   -9.47545
       O   -12.92144  -14.89418   -8.87870
      H1   -12.85637  -14.49115   -8.00551
       H   -19.00891  -11.52020   -7.43512
       O   -18.20226  -10.97918   -7.22681
      H1   -18.28971  -10.12086   -7.69031
       H   -14.06874  -13.20113   -5.23187
       O   -13.19336  -13.31275   -5.61515
      H1   -12.62910  -12.75636   -4.95272

