93
frame 2 | Written by MDAnalysis XYZWriter (release 2.4.3)
       H    -4.77562    4.68867    9.49634
       O    -4.76922    4.82710   10.49559
      H1    -4.62953    3.93180   10.81390
       H    -6.78482   -0.04501   12.86042
       O    -5.99284    0.15509   12.24553
      H1    -5.38807   -0.58095   12.37756
       H   -10.19920    5.48085   13.39178
       O   -11.00834    5.64221   13.90635
      H1   -11.43208    6.46094   13.54652
       H   -13.30284    3.56428   17.01633
       O   -12.40353    3.76489   16.66042
      H1   -11.84556    3.36234   17.37031
       H    -4.48161    3.58022   17.50774
       O    -3.50569    3.58153   17.36340
      H1    -3.38865    4.25407   16.67166
       H    -8.25524    1.63787   11.28643
       O    -8.79257    1.84639   12.09829
      H1    -9.67480    1.60816   11.84521
       H    -7.72379    2.46358   14.15405
       O    -6.82445    2.61016   14.41807
      H1    -6.49851    3.48961   14.12237
       H    -7.86774    4.79157   12.79661
       O    -8.79932    4.55417   12.58156
      H1    -8.82896    3.62977   12.47894
       H    -7.99248    3.02567    9.45664
       O    -7.86518    2.07743    9.20305
      H1    -6.95424    1.87404    9.16442
       H    -8.98361    8.37376   14.95199
       O    -8.76688    7.62788   15.55364
      H1    -9.61875    7.38861   15.94687
       H    -6.76408    7.54283   15.19430
       O    -5.91302    7.48311   14.74414
      H1    -5.24408    7.45306   15.42227
       H    -7.93967   -1.64186   17.57943
       O    -8.12581   -0.92275   16.95687
      H1    -7.24179   -0.74327   16.61585
       H    -3.78407   -2.19761   13.05471
       O    -4.59547   -1.85782   13.38157
      H1    -5.27434   -2.57479   13.31779
       H    -7.88150    6.81095   17.01990
       O    -7.14423    6.71556   17.68974
      H1    -6.60265    5.92398   17.47888
       H    -5.24278    2.03015   15.19022
       O    -4.30989    1.89532   15.48217
      H1    -4.06269    2.57630   16.09144
       H    -6.08016    6.02642   13.77981
       O    -6.18155    5.17505   13.35676
      H1    -5.81570    5.37554   12.47626
       H    -8.72564    4.61405   10.74278
       O    -8.52884    4.62710    9.77436
      H1    -7.73855    5.19901    9.80768
       H    -7.27379   -0.66203   14.34122
       O    -7.94114   -0.82489   13.69018
      H1    -8.67903   -0.28411   14.13005
       H    -7.93312    1.99867   17.92760
       O    -7.22765    2.40204   18.40283
      H1    -7.68648    3.13876   18.80421
       H   -10.50101    0.79970   15.16403
       O    -9.57288    0.62295   15.14266
      H1    -9.37145    0.24113   16.00532
       H    -5.19099   -1.05620   14.93598
       O    -5.72992   -0.54754   15.58458
      H1    -5.38470    0.37941   15.52256
       H    -9.90571   -2.61297   11.48026
       O   -10.54367   -1.94818   11.04059
      H1   -10.02044   -1.17415   11.14815
       H   -12.16096    1.41296   11.41671
       O   -11.41644    0.91179   11.78162
      H1   -11.47814    1.14615   12.69863
       H    -3.21222   -0.60212   17.97124
       O    -3.63535   -1.19127   17.31314
      H1    -4.31066   -0.59537   16.96960
       H   -11.36680    5.62749   16.88273
       O   -11.14589    6.44623   16.39535
      H1   -11.23308    6.20503   15.43101
       H    -1.77136    2.75054   14.04998
       O    -2.27446    2.06077   13.57346
      H1    -2.97035    1.87456   14.24683
       H    -7.46863   -0.87713    9.48402
       O    -7.30555   -1.49536   10.16641
      H1    -6.61232   -1.08107   10.63572
       H    -6.70966    3.40633   17.27513
       O    -6.37108    4.18394   16.75610
      H1    -6.80926    4.14480   15.89228
       H    -3.42871    2.27275   12.48360
       O    -4.31966    2.42649   11.96105
      H1    -4.91148    1.66746   12.21052
       H    -4.81417    0.63203    8.79946
       O    -5.19335    1.41133    9.25257
      H1    -4.81533    1.57103   10.18873
       H   -12.22091    2.43446   15.20170
       O   -12.06378    1.75320   14.56839
      H1   -12.50933    0.97209   14.91853

