93
frame 3 | Written by MDAnalysis XYZWriter (release 2.4.3)
       H     6.18196  -18.95418  -15.17397
       O     5.29995  -19.28430  -14.96086
      H1     5.39500  -20.25841  -14.95782
       H     9.73982  -15.59917  -17.20230
       O    10.55127  -15.67289  -16.65074
      H1    11.23526  -15.30306  -17.27324
       H    12.67328  -17.73314  -17.08380
       O    12.74185  -17.42231  -16.21876
      H1    11.89360  -16.93735  -16.06394
       H     5.16167  -16.86842  -14.84760
       O     5.46615  -16.21514  -14.18917
      H1     6.31007  -16.51387  -13.80812
       H     3.33199  -17.03476  -16.71444
       O     4.27126  -17.34143  -16.82435
      H1     4.44074  -18.13965  -16.28401
       H     9.14167  -19.09057  -15.01209
       O     9.74693  -19.50248  -14.34158
      H1    10.60475  -19.18489  -14.54112
       H     5.40573  -12.82948  -15.39672
       O     5.41419  -13.62542  -15.94515
      H1     5.41404  -14.35382  -15.34780
       H    16.38928  -13.62574  -15.19103
       O    15.45646  -13.66363  -14.92175
      H1    15.24915  -14.56784  -14.73882
       H     8.29381  -17.00571   -9.12314
       O     8.33108  -16.09920   -9.55435
      H1     8.12804  -16.33743  -10.45803
       H    10.08190  -13.01397  -18.23870
       O     9.62471  -13.41152  -18.96664
      H1     8.70638  -13.14717  -18.82015
       H    13.86037  -16.57285  -15.11449
       O    14.57064  -16.23381  -14.55673
      H1    14.30391  -16.52175  -13.61029
       H     8.98216  -10.52554  -14.59492
       O     9.42029   -9.94918  -15.21693
      H1     9.00823   -9.98227  -16.10078
       H    11.80302   -8.56824  -17.44014
       O    12.46516   -9.29929  -17.51387
      H1    12.72631   -9.25761  -18.41329
       H    15.32103  -19.92082  -13.72843
       O    15.26350  -19.82045  -14.73461
      H1    15.81719  -19.10603  -15.05715
       H    15.76837  -12.80356  -18.79859
       O    15.84717  -13.65677  -19.28230
      H1    15.76120  -14.41593  -18.69343
       H    12.41507  -14.18525  -18.92774
       O    12.51022  -15.07207  -18.56138
      H1    13.43317  -15.16627  -18.27489
       H     7.74750  -17.17767  -16.30166
       O     7.80498  -18.12577  -16.05362
      H1     7.45784  -18.62155  -16.79052
       H     7.48101   -9.17123  -17.44705
       O     8.32086   -9.68678  -17.50998
      H1     9.00633   -9.01882  -17.62048
       H    14.52141   -9.44294  -15.38186
       O    14.42953   -9.79946  -14.50274
      H1    13.87809  -10.58823  -14.63085
       H    12.37923  -12.23596  -14.83882
       O    13.01113  -12.45749  -14.10909
      H1    13.75154  -12.69366  -14.67612
       H    10.09815  -14.65301  -12.93902
       O     9.60382  -15.11292  -13.69715
      H1    10.16740  -14.98555  -14.43588
       H     7.53003  -11.43072  -17.88407
       O     7.13980  -12.21992  -18.22900
      H1     6.59261  -12.58918  -17.54714
       H    11.73440  -13.97874  -11.49227
       O    11.29474  -13.45791  -12.16871
      H1    11.89746  -13.52173  -12.92318
       H     9.26548  -13.46800  -11.07145
       O     8.63128  -12.78501  -10.80665
      H1     8.69189  -12.85834   -9.84711
       H    10.76334  -11.02822  -15.91728
       O    11.37342  -11.61857  -16.39090
      H1    11.85605  -10.97416  -16.94462
       H    15.46356  -16.70200  -11.52565
       O    14.62500  -17.02340  -11.86078
      H1    14.61352  -17.97215  -11.69350
       H     8.20911   -9.79038  -12.46713
       O     8.13802  -10.66183  -12.89322
      H1     8.53595  -11.26170  -12.27902
       H    15.26841  -15.52423  -16.74479
       O    15.32127  -15.88787  -17.63064
      H1    16.16896  -16.34557  -17.69600
       H     8.10369  -16.57907  -18.66814
       O     7.63518  -16.00601  -18.04559
      H1     6.82442  -15.88572  -18.58516
       H     8.69493  -16.73659  -12.82126
       O     8.07361  -16.99367  -12.13509
      H1     8.27021  -17.94886  -12.02745
       H    13.67863  -14.73557  -10.11081
       O    12.92426  -15.21366  -10.48339
      H1    13.39638  -15.84685  -11.03259

