93
frame 3 | Written by MDAnalysis XYZWriter (release 2.4.3)
       H     7.09876  -17.57721   13.36182
       O     7.64888  -16.81883   13.14776
      H1     7.06277  -16.10423   13.19191
       H     6.52326  -18.54622   17.30873
       O     7.47795  -18.47124   17.12877
      H1     7.64982  -17.65862   16.69747
       H    -0.59168  -19.36945   19.11997
       O     0.27083  -19.64240   18.86546
      H1     0.73667  -18.94467   18.41170
       H     9.40160  -13.81606   14.55397
       O     9.93416  -14.20119   15.26807
      H1     9.33265  -14.88038   15.61082
       H     6.93736  -19.82167   13.50628
       O     6.32348  -19.11683   13.32278
      H1     5.53978  -19.41566   13.81725
       H     4.65429  -15.28437   19.90628
       O     5.19974  -15.94478   19.44380
      H1     5.68263  -15.41869   18.77686
       H    -1.01664  -16.56131   18.46874
       O    -1.79499  -17.17333   18.18532
      H1    -1.77292  -17.41467   17.27166
       H    -0.10180  -13.79627   19.11386
       O    -0.28044  -12.91060   18.86090
      H1     0.36676  -12.73548   18.14568
       H    10.84941  -12.96697   18.83414
       O    11.75838  -12.75452   18.66902
      H1    11.95370  -12.97517   17.74951
       H     0.87827  -11.01264   15.95117
       O     0.13139  -10.92056   15.31562
      H1    -0.42322  -11.69176   15.49007
       H     7.03256  -11.87858   19.23566
       O     6.62947  -11.79341   18.39510
      H1     7.43112  -11.52578   17.87839
       H     7.71921  -16.49775   15.35583
       O     8.15415  -16.08687   16.12886
      H1     7.41554  -15.57680   16.45317
       H     0.96230  -15.71088   19.94984
       O     0.42648  -15.57373   19.13112
      H1     0.98886  -15.62399   18.34378
       H     3.31677   -9.99813   16.30592
       O     4.15732  -10.44150   16.10000
      H1     4.47887  -10.75535   16.97900
       H     8.03957  -12.01751   13.74769
       O     8.18351  -12.89643   13.51992
      H1     7.53631  -13.19530   12.90289
       H     5.82290   -8.92570   19.73096
       O     5.78614   -9.23852   18.81150
      H1     6.09176  -10.15163   18.78199
       H    12.14796  -16.86860   19.97354
       O    11.85060  -17.72404   19.55856
      H1    12.60919  -18.04435   19.15894
       H     4.87884  -17.36561   18.13097
       O     4.74769  -18.22003   17.64183
      H1     4.58886  -18.88187   18.29499
       H    10.49556  -18.23575   16.50796
       O    11.31535  -17.94829   16.06112
      H1    11.65252  -17.27640   16.65023
       H     9.59949  -18.37524   19.45902
       O     8.69816  -18.17620   19.62518
      H1     8.21110  -18.18494   18.76805
       H     2.45538  -15.06757   13.72033
       O     1.57419  -14.75087   13.94867
      H1     0.87071  -15.20394   13.37610
       H     1.91721  -16.10625   16.51854
       O     1.73663  -15.13077   16.55301
      H1     1.51664  -14.89224   15.59188
       H     4.63099  -12.86154   15.09833
       O     3.92500  -13.44562   15.39090
      H1     3.39012  -12.91384   16.01010
       H     8.20894   -9.40140   17.05325
       O     8.65104  -10.28451   17.01983
      H1     9.59512  -10.06554   17.19201
       H     6.41691  -13.48367   17.83567
       O     6.28744  -14.38463   17.46729
      H1     5.56902  -14.24884   16.80189
       H     7.79692  -10.36230   15.39093
       O     7.55099  -10.22624   14.47678
      H1     6.59551  -10.08154   14.43669
       H     5.14137  -17.19144   15.93770
       O     5.40758  -16.46767   15.34909
      H1     4.69827  -16.15613   14.76742
       H     2.75113  -17.81792   17.80262
       O     1.86578  -17.84424   17.35220
      H1     1.89562  -18.61666   16.81747
       H     1.26275  -19.70486   14.61410
       O     0.90040  -19.36070   15.45420
      H1     0.21723  -18.75423   15.15045
       H     4.61251  -14.92618   12.54969
       O     4.09729  -15.58742   13.05946
      H1     3.45859  -15.94447   12.45546
       H     2.02556  -13.45902   17.10283
       O     2.07797  -12.44506   17.21389
      H1     2.20656  -12.32749   18.20015

