93
frame 3 | Written by MDAnalysis XYZWriter (release 2.4.3)
       H    11.24980    6.67031  -19.83725
       O    11.52899    6.12173  -19.12097
      H1    11.96048    5.36533  -19.52278
       H    11.98768   10.53509  -15.76994
       O    11.49501   11.38871  -15.85802
      H1    12.20035   11.98255  -15.47533
       H    13.66142    2.63928  -17.51418
       O    14.60465    2.82520  -17.55142
      H1    14.79754    2.79482  -18.49184
       H    12.26919   -0.06274  -18.76742
       O    12.45366    0.29259  -17.92427
      H1    13.25521   -0.06738  -17.51538
       H     7.38938    0.28323  -18.65805
       O     6.56215    0.43881  -19.14924
      H1     5.96202    0.68563  -18.45179
       H    13.17978    8.48004  -15.34886
       O    13.28550    9.26442  -15.88790
      H1    13.16382    8.99936  -16.78422
       H    12.53944    5.37919  -14.12296
       O    12.86792    4.65809  -13.51630
      H1    12.59076    4.90490  -12.63699
       H     9.56379   -1.69075  -19.99302
       O    10.20129   -1.18513  -19.47693
      H1    10.72053   -1.83354  -18.98146
       H     9.85771   -0.14723  -17.78189
       O     9.45131    0.52083  -17.22156
      H1    10.00661    0.55245  -16.41142
       H     8.44555    7.95135  -17.30950
       O     8.48461    8.78490  -16.90541
      H1     9.06069    9.33514  -17.41286
       H    11.65470    6.17705  -16.38118
       O    12.32702    6.40129  -15.79363
      H1    13.18747    6.06757  -16.03868
       H     9.63266    5.02104  -13.02919
       O     9.32018    5.69814  -12.50271
      H1     9.21936    6.39063  -13.13945
       H     9.47102    3.71229  -15.40626
       O     9.97060    3.29806  -14.70458
      H1     9.58591    2.43991  -14.61126
       H    12.69871   -0.84151  -14.34799
       O    11.99397   -0.29203  -14.79839
      H1    12.40467   -0.28052  -15.65912
       H    14.80212   10.16498  -15.65076
       O    15.51667   10.78957  -15.45841
      H1    16.04590   10.76276  -16.30031
       H    15.34871    7.63764  -19.41520
       O    15.49871    6.73297  -19.17323
      H1    16.40709    6.51365  -19.16282
       H     8.44017    6.43574  -19.24721
       O     8.82673    6.09319  -18.40822
      H1     9.75943    6.00791  -18.56186
       H     9.07684   10.29720  -19.22604
       O     9.94453   10.26388  -18.71819
      H1    10.28933   11.16519  -18.58561
       H    15.04887    4.80949  -16.51649
       O    14.85482    5.75343  -16.53852
      H1    15.00625    5.90864  -17.43745
       H     8.28923    5.14329  -17.09630
       O     7.86555    4.78465  -16.31167
      H1     7.51526    5.59406  -15.92410
       H    17.52570    4.82332  -14.68721
       O    18.10375    4.06015  -14.87530
      H1    17.74840    3.41290  -15.55864
       H     8.85797    8.20674  -15.12154
       O     9.40886    7.96817  -14.36327
      H1    10.05621    8.70409  -14.26296
       H    14.14285    3.56535  -14.19566
       O    14.88940    3.16259  -14.64509
      H1    14.73473    3.03457  -15.57224
       H     6.38215   11.52712  -18.21532
       O     6.25815   10.57933  -18.11825
      H1     6.76122   10.19323  -18.84062
       H    11.87502    1.81808  -17.01509
       O    11.92375    2.58335  -16.46453
      H1    11.14402    2.79922  -15.90420
       H     6.73416    3.84091  -17.35203
       O     5.91301    3.55522  -17.76707
      H1     5.26859    4.20591  -17.52718
       H    15.98047    6.92419  -15.24619
       O    16.70139    6.87041  -14.60317
      H1    16.69601    7.70037  -14.06184
       H    11.85745    9.12479  -18.60825
       O    12.67207    8.54788  -18.54153
      H1    12.37094    7.65673  -18.32874
       H    10.74090   13.13917  -18.38445
       O    11.51699   12.58808  -18.31849
      H1    11.67729   12.34143  -17.36168
       H    11.67153    0.91837  -13.52965
       O    11.49144    1.74459  -13.09264
      H1    11.23205    2.37883  -13.80386
       H    18.01483    2.31542  -17.59248
       O    17.41881    2.31412  -16.81258
      H1    16.54867    2.48443  -17.21458

