93
frame 3 | Written by MDAnalysis XYZWriter (release 2.4.3)
       H   -17.18044   10.86089  -10.38896
       O   -17.52938    9.94074  -10.46218
      H1   -18.25610    9.74278   -9.84701
       H   -11.66075   10.32662  -13.72158
       O   -12.19476    9.62916  -13.44121
      H1   -12.40013    9.71132  -12.48643
       H   -10.49136   13.82966  -10.80327
       O   -11.19048   13.25492  -10.38105
      H1   -11.86221   13.19959  -11.06587
       H   -13.25075   12.31544  -12.78591
       O   -13.39927   12.02465  -11.85210
      H1   -14.29083   12.18404  -11.59968
       H   -15.09905   14.36849  -13.69059
       O   -15.65936   14.57952  -12.92012
      H1   -16.47427   14.08393  -13.10655
       H   -13.48631    9.35879   -9.99957
       O   -12.80809    8.90135  -10.54249
      H1   -12.00063    9.40791  -10.36738
       H   -12.59674   10.36195   -6.62457
       O   -12.68326    9.67011   -7.29560
      H1   -13.47424    9.93083   -7.80504
       H    -9.75452   10.61064  -10.96105
       O   -10.53524   10.44247  -10.32877
      H1   -10.82497   11.33697  -10.12363
       H   -11.73463   15.68906  -13.71519
       O   -11.01561   15.03792  -13.55852
      H1   -10.67875   14.92480  -14.46046
       H   -17.17635   12.38412  -13.71636
       O   -17.77089   13.14173  -13.85761
      H1   -18.56654   12.78333  -13.50239
       H   -17.07993    6.39643  -12.95311
       O   -16.38411    6.44354  -12.28789
      H1   -16.08370    7.38266  -12.32498
       H   -12.19146   13.46144  -14.30584
       O   -13.11923   13.13684  -14.49179
      H1   -13.21088   13.01699  -15.45256
       H   -11.46522   11.75576  -16.57170
       O   -11.06840   10.85516  -16.60898
      H1   -10.25152   10.93453  -16.05799
       H   -17.32273   12.87837  -11.43500
       O   -16.68923   12.36410  -10.92800
      H1   -16.55616   13.02942  -10.10324
       H   -14.42540   16.87355  -11.65640
       O   -14.37137   16.23953  -10.89331
      H1   -14.98099   15.55655  -11.18238
       H   -17.10331    8.25579  -15.02705
       O   -16.34960    8.16561  -15.59101
      H1   -15.53571    8.34289  -15.01016
       H    -8.89816   15.22142  -15.30512
       O    -9.47587   14.53239  -15.70775
      H1    -9.10187   13.72924  -15.25490
       H   -15.20088   10.95527  -14.02639
       O   -16.14347   11.03961  -13.74291
      H1   -16.61967   10.59709  -14.49067
       H   -17.72906   13.26135  -15.41216
       O   -17.69138   13.16094  -16.37814
      H1   -17.59545   12.21010  -16.53177
       H   -11.87674   13.79943   -8.42104
       O   -11.83659   13.79615   -7.45530
      H1   -11.47179   14.66156   -7.13695
       H   -12.24575   17.24545  -15.80376
       O   -12.24633   17.52096  -14.86708
      H1   -13.13172   17.58113  -14.47728
       H   -12.72383   12.96222  -17.80319
       O   -13.43034   12.79190  -17.16292
      H1   -14.16385   13.30534  -17.56485
       H   -13.83065   10.89340  -16.49011
       O   -14.09942   10.06512  -16.00009
      H1   -13.26207    9.79721  -15.54612
       H   -12.77579    6.48389  -13.88308
       O   -12.87044    7.18463  -14.52329
      H1   -12.61306    7.93408  -13.97793
       H    -9.91043   15.45948  -11.88164
       O    -9.44244   15.04863  -11.19623
      H1    -9.30784   15.74056  -10.53922
       H   -15.70920   16.95921  -13.26248
       O   -14.96912   17.63402  -13.22764
      H1   -15.33152   18.48706  -12.85069
       H   -14.18452    8.85778  -11.90345
       O   -15.10457    8.73310  -12.18114
      H1   -15.46210    9.60125  -12.33644
       H    -8.82319   11.61474  -15.36083
       O    -9.27152   11.99372  -14.61259
      H1    -8.74315   11.69822  -13.81020
       H    -7.89491   11.97762  -11.14804
       O    -7.98006   11.14961  -11.58012
      H1    -7.60924   10.48016  -10.99879
       H   -16.09520   14.46992  -18.67328
       O   -15.72684   14.33289  -17.75875
      H1   -16.35540   13.83320  -17.25099
       H   -15.06311    8.16002   -8.57812
       O   -15.19723    9.05386   -8.93127
      H1   -15.65866    8.99976   -9.81730

