93
frame 4 | Written by MDAnalysis XYZWriter (release 2.4.3)
       H    15.65428   -1.40435  -17.06798
       O    15.43397   -0.55844  -16.69928
      H1    15.91715   -0.47824  -15.88828
       H    15.98467   -5.90390  -19.78444
       O    16.93572   -5.92652  -19.40789
      H1    16.85203   -6.03311  -18.46742
       H    12.74223    0.54190  -17.26253
       O    13.21400    0.77290  -16.39874
      H1    14.03787    0.26281  -16.52684
       H    17.05092   -5.19105  -14.32392
       O    16.54803   -6.05546  -14.26814
      H1    15.80381   -5.85736  -13.72074
       H    14.68073   -5.01301  -15.39706
       O    14.52040   -5.05383  -16.31984
      H1    13.54408   -4.96618  -16.30288
       H    17.78355   -0.39306  -15.54756
       O    17.31951    0.16734  -14.92147
      H1    17.10200    0.94157  -15.46154
       H    16.17466   -3.30707  -18.50535
       O    15.46876   -2.86503  -17.97968
      H1    15.02287   -3.62532  -17.52477
       H    13.84504   -2.35491  -14.82197
       O    13.19418   -2.23145  -15.49762
      H1    13.08408   -1.30356  -15.72610
       H    14.80611   -2.19130  -11.93381
       O    14.40783   -2.14980  -11.06843
      H1    13.41681   -2.36088  -11.27788
       H    18.68165   -7.91739  -14.45817
       O    18.90100   -8.51112  -15.20588
      H1    19.03490   -7.82496  -15.87512
       H    17.80030   -4.49369  -19.43637
       O    17.95820   -3.57674  -19.14263
      H1    18.69311   -3.62467  -18.50909
       H    19.17310   -7.17179  -11.91249
       O    19.27833   -6.18961  -11.75280
      H1    18.42034   -5.96234  -11.36480
       H    19.11919   -3.72319  -16.11355
       O    19.63024   -3.42694  -16.78196
      H1    19.36542   -2.47071  -16.88010
       H    18.03574   -2.53453  -11.40859
       O    17.97092   -3.42396  -10.99089
      H1    17.15796   -3.38254  -10.48653
       H    16.78819   -1.40943   -9.07792
       O    16.34064   -0.85589   -9.70999
      H1    15.55961   -1.35349  -10.00050
       H    19.47551   -0.02586  -16.43763
       O    18.95368   -0.70237  -16.87755
      H1    18.81868   -0.35669  -17.76698
       H    18.03593    4.96340  -15.72567
       O    18.43146    4.09949  -15.49995
      H1    17.76138    3.38545  -15.61330
       H    15.12166    1.68156  -13.76961
       O    14.75502    0.85109  -13.43941
      H1    13.79462    0.82452  -13.60486
       H    17.55279   -0.21760  -18.46643
       O    17.75923   -0.53522  -19.34025
      H1    17.79774   -1.52805  -19.24634
       H    15.88708   -7.04713  -10.59149
       O    15.07408   -6.63547  -10.25803
      H1    14.46530   -7.32573  -10.04610
       H    18.09743   -6.33615   -8.51335
       O    18.09214   -6.97528   -9.21545
      H1    18.87428   -6.68901   -9.68096
       H    19.03051   -9.61466  -12.51000
       O    18.60926   -8.81481  -12.27357
      H1    17.68752   -9.07689  -12.13831
       H    14.54193   -5.69287  -11.65647
       O    14.24552   -5.52154  -12.54517
      H1    13.90602   -4.59163  -12.54845
       H    18.31787   -2.76572  -14.05608
       O    17.54321   -3.37932  -14.08871
      H1    17.52394   -3.72044  -13.20735
       H    16.32074   -7.41137  -16.07601
       O    15.62329   -7.75835  -16.63840
      H1    14.97085   -7.06866  -16.57051
       H    18.49359    0.28650  -12.06134
       O    18.37304   -0.60220  -11.73483
      H1    17.85386   -0.52471  -10.92981
       H    16.12681   -2.30590  -14.03341
       O    15.29645   -2.09061  -13.66858
      H1    15.20659   -1.12096  -13.85968
       H    15.23471   -4.97441   -9.39767
       O    15.56204   -4.03956   -9.32624
      H1    15.04894   -3.58006  -10.03472
       H    18.18476    2.30395  -17.87860
       O    17.51759    1.84907  -17.34528
      H1    16.61797    2.24184  -17.45158
       H    19.82899   -5.81773  -16.73438
       O    19.14413   -6.42201  -17.05692
      H1    19.54786   -7.04555  -17.67840
       H    17.85546    1.20242  -13.52098
       O    18.55876    1.68818  -13.03544
      H1    19.34922    1.61287  -13.61180

