93
frame 4 | Written by MDAnalysis XYZWriter (release 2.4.3)
       H    -5.34334   -8.00318   -2.60298
       O    -4.73419   -8.21030   -1.87047
      H1    -4.57991   -7.39370   -1.36128
       H    -7.14297   -8.75838    2.23561
       O    -7.78680   -8.18438    1.80988
      H1    -7.76962   -8.48178    0.88091
       H    -9.58013   -2.73787    2.31516
       O    -8.72360   -2.33574    2.42783
      H1    -8.78816   -1.74862    3.19359
       H    -3.99072   -2.19491   -2.73581
       O    -3.25742   -2.66139   -2.34658
      H1    -2.53397   -2.60005   -3.01941
       H   -13.34013   -3.66357   -0.47276
       O   -12.40169   -3.54179   -0.62242
      H1   -11.95947   -3.47549    0.21162
       H    -9.03714   -5.98146   -4.93445
       O    -9.00903   -5.83378   -4.01217
      H1    -9.81930   -5.28529   -3.82362
       H    -7.83149   -4.13079   -4.23246
       O    -7.43135   -3.38693   -4.69750
      H1    -7.00176   -3.86656   -5.42261
       H    -9.93320   -5.50822    3.04781
       O    -9.79396   -4.99009    3.87677
      H1    -8.83472   -5.06995    4.09409
       H    -7.83036   -6.81356   -0.47833
       O    -8.15214   -5.87700   -0.30281
      H1    -7.42530   -5.52667    0.27016
       H    -4.58672   -0.85266   -0.03493
       O    -5.15075   -0.93978    0.82313
      H1    -6.04021   -1.18587    0.51815
       H    -6.55094   -0.17393   -2.28337
       O    -6.83499    0.73391   -2.04998
      H1    -7.68027    0.68979   -1.55710
       H   -11.56494   -4.26694   -3.55591
       O   -11.12828   -4.47874   -2.72655
      H1   -11.69818   -4.07484   -1.99922
       H    -7.08501   -6.27941   -4.20537
       O    -6.32809   -6.85595   -4.34962
      H1    -6.74336   -7.72501   -4.63310
       H    -8.02359   -8.53581   -1.69829
       O    -7.52194   -8.66169   -0.85953
      H1    -6.56691   -8.67041   -1.09937
       H    -5.03713   -5.12608   -3.40365
       O    -5.20170   -4.53175   -2.67523
      H1    -4.36812   -4.08972   -2.53704
       H   -11.17444   -4.12378    2.28661
       O   -11.31369   -3.28187    1.85185
      H1   -12.00759   -2.85018    2.32797
       H   -11.02004   -6.19615    0.98315
       O   -10.23299   -5.92713    1.50075
      H1    -9.43092   -6.14453    0.93558
       H    -5.53212   -1.16144   -3.71798
       O    -5.86616   -1.55875   -2.90121
      H1    -6.45614   -2.30622   -3.17228
       H    -9.26662   -9.03992   -3.47804
       O    -9.19303   -8.32704   -2.86979
      H1    -9.35043   -7.50270   -3.30865
       H    -7.91093   -2.11064   -0.49555
       O    -7.78628   -1.41463    0.15161
      H1    -8.13668   -1.87166    0.91500
       H    -5.91222   -3.34913    3.22576
       O    -6.53213   -3.00974    3.92292
      H1    -7.40312   -2.91515    3.55432
       H    -8.95431   -3.35490   -6.10117
       O    -9.79047   -3.67460   -6.46501
      H1   -10.07315   -3.33679   -7.35751
       H    -3.87297   -5.58336   -0.52498
       O    -4.75541   -5.98586   -0.27575
      H1    -5.18652   -5.40095   -0.95863
       H   -13.29298   -6.55715   -3.78885
       O   -12.99944   -6.30197   -2.91930
      H1   -12.35167   -5.65390   -2.95262
       H   -12.27754   -0.38479   -2.24508
       O   -12.84570   -1.23342   -2.31569
      H1   -12.59973   -1.75304   -1.50930
       H    -9.85226   -3.57641   -1.74211
       O    -9.02543   -3.35442   -1.43020
      H1    -8.68003   -4.22203   -1.22092
       H   -10.08127   -8.84641   -1.41055
       O   -10.61643   -9.15918   -0.67169
      H1   -11.48315   -9.30706   -1.07415
       H   -12.41212   -5.46160   -5.77383
       O   -12.03402   -4.57516   -5.48187
      H1   -11.13093   -4.56685   -5.96983
       H   -13.19635   -7.58120    0.06424
       O   -12.30710   -7.20598    0.08013
      H1   -11.78158   -7.87868   -0.31004
       H    -8.80117   -0.20274   -0.15469
       O    -9.15535    0.62536   -0.49350
      H1    -8.68627    1.28854    0.01230
       H    -6.57496   -6.61559    2.43507
       O    -6.25372   -5.79496    2.02544
      H1    -5.49921   -6.00692    1.49070

