93
frame 3 | Written by MDAnalysis XYZWriter (release 2.4.3)
       H    16.54222   12.41008    3.49772
       O    16.24227   12.44803    2.59745
      H1    17.06257   12.40073    2.05783
       H    17.77472   19.14379   12.79999
       O    18.33859   18.39363   12.90697
      H1    19.23552   18.74876   12.82120
       H    17.47154   11.26148   12.14254
       O    17.82987   11.51491   12.96174
      H1    18.29859   10.83346   13.38033
       H    12.83717   11.70604    8.06588
       O    11.91712   11.90790    8.36455
      H1    12.07499   12.47966    9.14885
       H    14.79281   16.98754    7.29474
       O    15.46627   17.06364    7.96487
      H1    15.92476   16.22631    8.08333
       H    14.77563   10.05976    9.16773
       O    15.02203    9.47118    9.97154
      H1    14.79425    8.57985    9.61190
       H    14.06171   10.24945   11.80302
       O    13.36928   10.60867   12.35959
      H1    12.59462   10.06162   12.39285
       H    10.49032   16.67166    9.91702
       O    10.93666   16.19079    9.10885
      H1    11.88090   16.46011    9.31785
       H    16.18704    9.42091    4.21857
       O    15.73873    9.76749    4.98108
      H1    15.71831    9.05804    5.67092
       H    17.00341   14.30683    9.23351
       O    17.12855   15.26896    9.50774
      H1    17.46076   15.34296   10.38276
       H    16.58495   11.12483    5.28682
       O    16.96711   12.03084    5.38230
      H1    17.92282   11.90562    5.33646
       H    12.93778   17.49860    5.81426
       O    13.87491   17.47936    5.47974
      H1    13.99994   18.48240    5.54271
       H    17.55113   19.01369    5.79694
       O    17.22516   19.03645    4.86236
      H1    16.29777   19.20729    4.94609
       H    17.20789   16.67531   14.18510
       O    17.18872   16.81924   15.12878
      H1    16.25883   16.61201   15.39249
       H    17.10650   12.05665    8.70787
       O    16.70947   12.63305    8.06207
      H1    17.16622   12.66121    7.24104
       H    13.58541   14.65339    6.08989
       O    12.62558   14.70710    6.07116
      H1    12.48235   14.17169    6.83665
       H    19.40022   14.01896   13.63494
       O    18.48076   14.03316   13.95322
      H1    18.12606   13.17692   13.64929
       H    18.02267   19.58777    8.27073
       O    18.36317   19.15702    7.44639
      H1    19.06906   19.80014    7.12216
       H    15.17831   11.63796    7.50171
       O    14.52657   10.94113    7.72033
      H1    13.97243   10.80206    6.92159
       H    15.33799   15.92029   12.24841
       O    14.38437   15.93054   12.41342
      H1    14.15442   14.97973   12.59195
       H    11.55611   14.68538    9.88664
       O    11.70672   13.93606   10.49474
      H1    10.93886   13.35599   10.45111
       H    17.99733   10.40101    9.91664
       O    17.27626   11.04705   10.19044
      H1    16.48497   10.50623   10.05639
       H    17.08572   17.06628    5.01482
       O    17.04866   16.09309    4.68558
      H1    17.85684   15.69329    5.01109
       H    18.46345   16.31607    8.98816
       O    19.19751   16.82297    8.68742
      H1    18.87682   17.68498    8.45289
       H    13.82227   16.57455   10.94530
       O    13.43898   16.97947   10.09540
      H1    14.19391   17.02586    9.53129
       H    20.23761   15.30802    6.00786
       O    19.37783   15.09153    6.47789
      H1    19.17047   15.73998    7.12011
       H    14.10043   16.72201   14.09849
       O    14.28150   16.69288   15.02268
      H1    13.72745   17.33986   15.43364
       H    15.88118   15.12431    5.58216
       O    15.43075   14.56907    6.25957
      H1    15.80955   13.70783    6.16155
       H    15.07715   13.09920   14.41875
       O    15.15996   12.98100   15.37332
      H1    14.43163   13.48824   15.80842
       H    12.51801   13.56645   12.08921
       O    12.90995   13.52993   12.96711
      H1    13.15115   12.57371   12.93150
       H    17.75453   16.89114   12.38830
       O    17.40587   15.99139   12.22510
      H1    17.83043   15.49740   12.90281

