93
frame 5 | Written by MDAnalysis XYZWriter (release 2.4.3)
       H   -11.71505   -7.33491   17.25001
       O   -12.65941   -7.47623   17.21614
      H1   -12.96174   -7.33256   18.10431
       H   -16.72230   -4.97515   12.85092
       O   -16.08769   -4.29462   13.07863
      H1   -16.35139   -4.06868   13.99145
       H   -12.60049    1.29568   16.05610
       O   -11.89079    1.93162   15.96689
      H1   -11.39759    1.64542   16.75190
       H   -14.02301   -1.16399   15.72403
       O   -13.12541   -0.97987   15.38395
      H1   -13.10015   -1.72375   14.73848
       H   -10.79052   -3.91735   16.59004
       O   -11.69673   -3.97926   16.93347
      H1   -12.11497   -3.98818   16.07639
       H   -16.36418   -2.84956   12.05247
       O   -16.44588   -2.01811   11.56613
      H1   -17.40417   -1.91297   11.45953
       H   -18.00052    2.50051   14.31279
       O   -17.81441    3.41041   14.06474
      H1   -17.15175    3.34064   13.40996
       H   -17.02125   -7.67439   11.57482
       O   -17.80450   -7.99964   12.00357
      H1   -18.39985   -8.03806   11.23240
       H   -13.64178   -3.86253   10.42821
       O   -14.59755   -4.14802   10.52596
      H1   -15.17131   -3.40069   10.31988
       H   -17.72534   -6.28500   14.61257
       O   -18.40649   -5.86965   14.11291
      H1   -18.49985   -6.36765   13.29021
       H   -16.15542    1.47246   12.58620
       O   -16.41951    2.03514   11.86954
      H1   -16.81642    1.51147   11.19955
       H   -19.04280   -2.26991   15.37954
       O   -18.42170   -3.01501   15.39641
      H1   -18.56088   -3.55236   16.23956
       H   -19.46416   -5.32722   17.57791
       O   -18.83263   -4.57040   17.59477
      H1   -18.70747   -4.48801   18.56812
       H   -16.36303   -0.75132   12.77769
       O   -16.14808   -0.17346   13.55984
      H1   -16.00034   -0.82934   14.25557
       H   -14.15066    1.73196   18.12856
       O   -14.10137    0.82205   17.73768
      H1   -14.65073    0.27425   18.39416
       H   -14.03830   -8.25351   11.06796
       O   -14.63421   -8.33487   11.90395
      H1   -14.44837   -7.47702   12.31453
       H   -17.37338    1.28392   18.96694
       O   -17.69348    0.54823   19.56353
      H1   -18.12442   -0.12143   18.97975
       H   -13.20454   -1.54676   11.73664
       O   -13.82017   -1.30523   11.04470
      H1   -14.72863   -1.42078   11.39137
       H   -15.35511   -7.78281   17.92342
       O   -15.67974   -8.55002   17.45034
      H1   -15.11735   -8.79234   16.71197
       H   -13.68616   -6.19348   16.69231
       O   -14.14900   -5.52270   16.19827
      H1   -15.00748   -5.90321   16.13068
       H   -16.73681   -7.32443   16.68214
       O   -16.73559   -6.50670   16.16371
      H1   -17.30892   -5.85295   16.60584
       H   -12.90458   -3.59630   13.46304
       O   -12.23966   -2.87954   13.33980
      H1   -11.66581   -3.25407   12.65096
       H   -12.74303   -1.18290   17.47375
       O   -12.47977   -1.77688   18.19356
      H1   -12.05052   -2.51318   17.79207
       H   -15.46300   -2.73926   16.58976
       O   -15.70488   -2.43503   15.65374
      H1   -16.63489   -2.58543   15.61923
       H   -10.96947   -5.93795   11.79310
       O   -11.68337   -5.53416   11.35002
      H1   -12.32915   -5.46180   12.04164
       H   -19.69564   -1.15837   11.94718
       O   -19.06536   -1.85412   12.14659
      H1   -19.22530   -1.94749   13.10443
       H   -15.86195    2.65883   16.57968
       O   -16.42966    1.86753   16.74335
      H1   -15.71297    1.24845   16.93110
       H   -17.71229    1.25461   15.77564
       O   -18.23104    0.90537   15.03415
      H1   -17.57432    0.44963   14.47055
       H   -14.48138   -4.31935   17.61513
       O   -14.73001   -3.42523   17.99720
      H1   -13.89839   -3.04416   18.25730
       H   -13.68776   -5.57625   14.31051
       O   -13.67602   -5.23457   13.39639
      H1   -14.54308   -4.89782   13.14740
       H   -11.43447    1.32533   14.34503
       O   -11.31839    0.92162   13.43543
      H1   -12.16421    0.49846   13.38411

