93
frame 4 | Written by MDAnalysis XYZWriter (release 2.4.3)
       H     3.89708   -8.04844    3.62540
       O     4.59950   -7.99807    2.94622
      H1     4.20516   -7.64593    2.09242
       H     6.03964   -9.85123    8.94703
       O     5.93779  -10.33195    9.79591
      H1     6.86513  -10.25541   10.11966
       H     0.39300  -12.15846    5.88886
       O     0.33442  -11.29393    6.33127
      H1     1.07266  -11.18100    6.99168
       H     6.09718   -7.04857    4.19119
       O     6.41913   -6.14689    4.32201
      H1     5.60684   -5.53450    4.21555
       H    -0.37398   -6.03352    5.40015
       O     0.21422   -6.65461    5.81008
      H1    -0.37649   -7.13244    6.42919
       H     0.72705  -12.02187   11.79945
       O     0.65445  -12.22260   10.87010
      H1     0.36527  -11.42537   10.34207
       H     1.97904   -5.66325    3.73452
       O     2.24606   -6.52658    4.13055
      H1     1.45091   -6.79472    4.68278
       H     5.15222   -9.52880    2.50602
       O     5.56979  -10.28715    2.06666
      H1     6.52539  -10.07079    2.17373
       H     1.88994  -11.05279    1.37477
       O     2.19361  -10.45088    2.05000
      H1     1.62708   -9.74190    1.81485
       H    -0.33388   -8.72332   12.31049
       O     0.22628   -8.00855   12.11002
      H1     0.92941   -8.36538   11.44292
       H    -0.16497  -13.64651    4.72881
       O     0.34760  -13.72475    5.53680
      H1     1.26720  -13.64395    5.14563
       H    -1.55307   -6.74080    9.85586
       O    -1.80441   -7.52896   10.31296
      H1    -1.04552   -7.79111   10.77305
       H     5.11532  -11.79012    8.69319
       O     4.23588  -12.18834    8.58390
      H1     4.51704  -12.88586    7.99455
       H     5.49300   -8.40112    7.05778
       O     5.84428   -9.32419    7.06470
      H1     6.83164   -9.28655    7.03770
       H     0.66602   -9.86217    9.20117
       O    -0.24155  -10.17535    8.95728
      H1    -0.11370  -10.74695    8.24088
       H    -2.27081   -9.09206    6.45679
       O    -1.52312   -8.56389    6.79323
      H1    -1.19815   -9.02079    7.53460
       H     3.67340   -6.32552    9.94888
       O     2.78235   -6.44401    9.68928
      H1     2.28705   -5.86264   10.34043
       H     5.53120  -10.71889    5.99212
       O     5.28481  -11.28759    5.23674
      H1     6.05689  -11.37276    4.65888
       H    -1.74338  -10.11036    3.57594
       O    -2.37417  -10.84848    3.70833
      H1    -2.87839  -10.93265    2.86788
       H     5.95608   -6.35687    7.08367
       O     5.05784   -6.69960    7.07292
      H1     4.92182   -6.72795    6.15938
       H     2.31520   -9.84513   10.68791
       O     1.90673   -9.11246   10.24532
      H1     2.64320   -8.75498    9.69699
       H     4.41739  -10.81631   10.90076
       O     3.73687  -11.01511   11.48965
      H1     3.42929  -11.91410   11.32565
       H     0.17671   -9.90976    4.75695
       O    -0.36365   -9.35515    4.21676
      H1    -0.66675   -8.63206    4.78835
       H     3.27212  -10.79505    7.63655
       O     2.49720  -10.22619    7.45109
      H1     2.66604  -10.02861    6.50281
       H     3.06292  -10.28832    3.77819
       O     3.21980   -9.81729    4.60798
      H1     4.09351  -10.21244    4.91261
       H     0.35240  -11.39930    2.24054
       O     0.18004  -12.10503    1.53540
      H1    -0.52948  -11.64810    1.06993
       H     3.82174  -13.13994    5.21720
       O     3.01086  -13.63838    5.11797
      H1     3.05870  -14.26184    4.41440
       H     1.54158   -5.27724    6.57068
       O     1.97267   -4.90646    7.35350
      H1     2.09908   -5.71902    7.88485
       H     2.19490  -13.34052   10.80083
       O     3.09239  -13.64861   10.83899
      H1     3.52468  -13.42818   10.02136
       H    -0.64503  -14.93677   10.58911
       O    -1.19919  -14.31564   11.07729
      H1    -0.79877  -13.44033   10.98862
       H     6.19559  -14.89833    7.24208
       O     5.56983  -14.57217    7.91710
      H1     4.88472  -15.21192    7.68235

