93
frame 5 | Written by MDAnalysis XYZWriter (release 2.4.3)
       H   -11.71505   -7.33491   17.25001
       O   -12.65941   -7.47623   17.21614
      H1   -12.96174   -7.33256   18.10431
       H   -10.82634   -9.75090   16.82036
       O   -11.52505  -10.12051   17.42112
      H1   -12.12850   -9.41274   17.59661
       H    -3.97400   -3.64226   12.73109
       O    -3.95016   -2.74348   12.35056
      H1    -3.04769   -2.43882   12.45590
       H   -10.79052   -3.91735   16.59004
       O   -11.69673   -3.97926   16.93347
      H1   -12.11497   -3.98818   16.07639
       H    -9.34836   -8.43260   16.34054
       O    -9.49584   -9.25619   15.90242
      H1    -9.54377   -9.16473   14.97539
       H    -9.38316   -5.21383   19.14006
       O   -10.25511   -4.79076   19.19857
      H1   -10.66591   -5.31796   18.53035
       H    -4.48675   -5.78453   13.94183
       O    -4.65948   -5.31225   13.12064
      H1    -4.77853   -6.01170   12.46154
       H    -7.61105   -4.14737   12.55608
       O    -7.50279   -4.32844   13.50019
      H1    -6.58530   -4.57177   13.69458
       H    -8.88195   -4.53691   10.43526
       O    -8.36912   -3.91808   10.97336
      H1    -7.71478   -3.44234   10.42304
       H    -6.99617   -8.35777   14.97808
       O    -7.11207   -7.45910   14.67991
      H1    -7.58665   -7.51929   13.82074
       H    -6.44315   -8.47891   17.82045
       O    -6.50866   -8.92015   18.68956
      H1    -6.99702   -9.80416   18.62222
       H    -5.44300  -11.72234   12.98248
       O    -5.62140  -10.76925   12.99195
      H1    -6.00343  -10.59622   13.90587
       H    -7.59189   -2.02046   19.29483
       O    -7.76183   -1.74788   18.39466
      H1    -7.02375   -1.18909   18.11707
       H    -5.08481   -1.69688   13.07042
       O    -6.03322   -1.46646   13.23693
      H1    -6.48234   -2.32133   13.21482
       H    -7.93546   -6.99820   11.39116
       O    -8.43321   -6.93455   12.28511
      H1    -8.21468   -6.10709   12.71153
       H    -6.11029  -10.93666   16.25002
       O    -6.62057  -10.28520   15.80371
      H1    -7.53926  -10.40955   16.06219
       H   -13.68616   -6.19348   16.69231
       O   -14.14900   -5.52270   16.19827
      H1   -15.00748   -5.90321   16.13068
       H   -12.90458   -3.59630   13.46304
       O   -12.23966   -2.87954   13.33980
      H1   -11.66581   -3.25407   12.65096
       H   -12.74303   -1.18290   17.47375
       O   -12.47977   -1.77688   18.19356
      H1   -12.05052   -2.51318   17.79207
       H    -4.38396   -9.26604   13.96137
       O    -3.74246   -8.61637   13.70110
      H1    -3.79966   -7.92303   14.39030
       H    -8.52615   -2.45384   17.09395
       O    -9.16618   -2.84114   16.41458
      H1    -9.14724   -2.17978   15.73272
       H   -10.96947   -5.93795   11.79310
       O   -11.68337   -5.53416   11.35002
      H1   -12.32915   -5.46180   12.04164
       H    -9.54817   -8.49201   12.72439
       O    -9.91974   -9.24085   13.17451
      H1    -9.92681   -9.96550   12.50917
       H    -8.52094   -4.60575   16.38648
       O    -7.91972   -5.36467   16.55001
      H1    -7.58262   -5.54218   15.65818
       H    -9.94752   -7.33370   18.42225
       O    -9.96809   -7.14325   17.49288
      H1    -9.14891   -6.64595   17.28123
       H    -8.57016   -0.45954   13.42260
       O    -8.93582   -0.24977   14.28310
      H1    -9.79639    0.14405   14.11870
       H    -6.03096   -1.38577   15.38762
       O    -5.79879   -1.11710   16.28254
      H1    -5.40619   -0.20178   16.31866
       H    -4.47745   -5.89696   18.93959
       O    -4.92210   -5.58667   18.18518
      H1    -4.84484   -4.61721   18.08855
       H    -3.58635   -2.86209   17.39191
       O    -4.43362   -2.82298   17.83766
      H1    -4.95284   -2.12086   17.37779
       H    -5.64222   -6.70888   15.35386
       O    -4.66981   -6.56427   15.58672
      H1    -4.73182   -6.27157   16.49121
       H   -13.68776   -5.57625   14.31051
       O   -13.67602   -5.23457   13.39639
      H1   -14.54308   -4.89782   13.14740

