93
frame 5 | Written by MDAnalysis XYZWriter (release 2.4.3)
       H     3.90811   -1.91018   13.35433
       O     4.35804   -2.74951   13.47928
      H1     3.72832   -3.30118   13.94272
       H     7.42226   -2.34983   11.23324
       O     7.33397   -1.54502   10.70350
      H1     6.69511   -1.79681   10.04223
       H     4.73814   -6.35849    5.32105
       O     4.71577   -5.79238    6.14758
      H1     4.66340   -4.84019    5.85562
       H     6.40310   -5.97726    7.04817
       O     7.03677   -6.21405    7.76863
      H1     7.69573   -6.88546    7.37607
       H     4.72815   -2.58577    8.40008
       O     5.14912   -2.33977    9.24332
      H1     4.70765   -1.45497    9.42934
       H     3.27273   -2.10147    6.71789
       O     3.60415   -3.00196    6.83398
      H1     2.90794   -3.50588    7.30210
       H     4.67224    0.04223    4.40378
       O     3.80158    0.21122    4.76808
      H1     3.91959    1.08869    5.09121
       H     3.77591   -3.40121    5.04584
       O     4.25286   -3.44155    4.17962
      H1     3.72880   -3.96951    3.52583
       H    10.15320   -1.75174    4.87761
       O     9.65968   -0.91573    4.95838
      H1     8.74347   -1.22190    4.89760
       H     0.11488   -3.24094    8.10875
       O    -0.59277   -2.57364    8.18691
      H1    -0.45297   -2.03586    7.43336
       H     6.93885   -3.60248    9.37070
       O     7.73803   -3.99399    9.17064
      H1     7.64519   -4.86778    8.77655
       H     3.51877    0.33464   10.25489
       O     3.98214    0.00290    9.49317
      H1     4.58210    0.71209    9.25452
       H     8.30064   -6.33195   12.43229
       O     7.72461   -5.92509   11.80625
      H1     8.39489   -5.44070   11.27366
       H     6.98511    0.18831    6.48604
       O     7.19423    0.96683    7.02662
      H1     7.67975    0.58502    7.77288
       H     3.45266   -5.55857   10.20587
       O     2.66489   -6.13793   10.06590
      H1     2.11702   -5.73874   10.70886
       H    -0.35061   -1.35695   11.02310
       O     0.35656   -1.01285   10.47096
      H1     0.12648   -1.21927    9.57562
       H     0.73711   -0.40887    5.93346
       O    -0.11509   -0.76749    5.59436
      H1    -0.73780   -0.03248    5.71841
       H     9.60593    0.23527    8.64778
       O     8.84306    0.37863    9.22188
      H1     8.62263   -0.45426    9.71496
       H     6.01427    1.82488    8.15567
       O     5.36756    2.31162    8.69852
      H1     5.87028    2.83930    9.33908
       H     7.59461   -4.11080   12.73731
       O     7.82677   -3.18504   12.60267
      H1     8.47701   -2.95393   13.26338
       H     5.42817   -7.39999    8.39715
       O     4.80960   -8.08172    8.06504
      H1     4.21731   -7.50226    7.55693
       H     5.06245   -4.00537   12.03402
       O     5.20147   -4.97729   11.93795
      H1     6.14655   -5.23238   11.82878
       H     3.09385   -0.08195    6.15753
       O     2.54105   -0.48111    6.89757
      H1     2.76467   -0.25798    7.76469
       H     6.87338   -1.87841    5.94768
       O     6.56614   -1.31875    5.19910
      H1     5.72305   -1.72315    4.95872
       H     6.24414   -0.01386   11.15872
       O     6.04515    0.88523   11.41033
      H1     5.10777    0.95214   11.75675
       H     0.87677    0.56649   10.66236
       O     1.26593    1.50702   10.59802
      H1     1.31380    1.72297    9.61079
       H     0.06992   -4.42702   11.46811
       O     0.93248   -4.04802   11.35236
      H1     0.75286   -3.11714   11.08905
       H     1.13215   -4.85702    6.91406
       O     1.40316   -4.38008    7.76933
      H1     1.42598   -5.04467    8.48124
       H     8.06248   -3.65875    7.51487
       O     7.87687   -3.18389    6.65453
      H1     7.80914   -3.85837    5.93807
       H     4.12036    2.46692    7.05350
       O     3.60576    2.58578    6.25073
      H1     4.04420    3.29543    5.83271
       H     9.34285   -3.50972   10.56802
       O    10.05607   -3.72084   11.15149
      H1     9.74742   -3.45645   12.02398

