93
frame 0 | Written by MDAnalysis XYZWriter (release 2.4.3)
       H    -5.95997    5.73208   -5.51779
       O    -5.63044    4.98652   -6.07275
      H1    -5.93130    4.30471   -5.42528
       H    -7.50455    2.84031   -4.52712
       O    -6.53916    3.05216   -4.34209
      H1    -6.48387    2.85807   -3.38309
       H    -4.97334    9.74574   -8.01034
       O    -5.86657    9.95594   -7.67621
      H1    -6.39304    9.49322   -8.34690
       H   -10.99498    9.60724   -2.69510
       O   -10.20762    9.23983   -2.18714
      H1   -10.60561    8.46917   -1.69553
       H    -3.77048    9.94335    0.07813
       O    -3.54129    9.08338   -0.32193
      H1    -4.15102    8.87777   -1.09810
       H    -2.75949    7.17158   -6.52751
       O    -2.70447    8.11861   -6.78836
      H1    -2.94380    8.15154   -7.72939
       H    -3.20014    9.38367   -5.18621
       O    -3.56304    9.75719   -4.42840
      H1    -4.05014    9.08477   -3.88942
       H    -7.03769   12.83097   -4.60565
       O    -7.91353   13.21563   -4.73193
      H1    -8.24074   12.99467   -5.57706
       H    -9.08001   10.89252   -0.19276
       O   -10.06797   10.85452   -0.07805
      H1   -10.37624   10.13605   -0.66552
       H    -6.83195    5.65478    1.81681
       O    -6.92720    5.87543    0.86463
      H1    -7.57200    5.25436    0.49956
       H    -5.76393    4.88489   -3.27808
       O    -6.01730    5.37442   -2.46202
      H1    -5.47495    5.07695   -1.75168
       H    -3.42132    7.34576    0.97628
       O    -3.75075    6.62443    1.51238
      H1    -3.15632    6.71180    2.26957
       H    -7.05117    8.96911    2.10127
       O    -6.34237    8.75522    1.39159
      H1    -6.50808    7.82854    1.18423
       H    -7.62412   13.53888    1.93407
       O    -6.87193   13.22178    1.37951
      H1    -7.27563   12.44149    0.90942
       H    -4.37315    9.10139    2.62533
       O    -4.14268    9.62953    3.38598
      H1    -4.57396   10.49992    3.26191
       H    -2.40763    9.83560   -1.54079
       O    -1.99506   10.35738   -2.23145
      H1    -2.47142   10.18509   -3.04415
       H    -4.15783   11.51269   -4.67797
       O    -4.45042   12.42366   -4.67366
      H1    -4.63411   12.69398   -5.59965
       H    -3.57139    5.20299   -6.03175
       O    -2.69069    5.53849   -5.76235
      H1    -2.32856    4.78200   -5.26089
       H    -6.78263   11.46203   -0.80858
       O    -7.40100   10.92358   -0.25147
      H1    -6.84379   10.15411    0.06983
       H    -3.98276   11.98895    1.42534
       O    -3.91537   11.78972    0.48717
      H1    -3.21578   12.44767    0.32785
       H    -0.65925    8.05156    1.19383
       O    -0.37157    7.29642    0.65322
      H1    -0.50371    7.62260   -0.25307
       H    -5.38036   12.49395   -2.47709
       O    -5.71718   12.70919   -1.55731
      H1    -4.97674   12.46597   -0.95533
       H    -8.06625    4.45621   -2.43165
       O    -9.02457    4.74274   -2.56778
      H1    -9.53750    3.87104   -2.67666
       H    -4.89547    5.10610    0.36158
       O    -4.53478    4.38845   -0.18131
      H1    -3.56911    4.51380   -0.24659
       H    -5.87413    8.38012   -2.31271
       O    -4.95333    8.19991   -2.55208
      H1    -4.88304    7.25398   -2.66671
       H    -4.86749    6.06118    2.79382
       O    -5.59816    5.78410    3.43386
      H1    -5.73278    6.55631    3.98499
       H   -11.40292    6.38243   -1.22111
       O   -10.83134    7.08431   -0.83296
      H1   -10.00204    6.60182   -0.44055
       H    -8.78892    6.43417   -3.43134
       O    -8.98278    7.25007   -4.00152
      H1    -9.40912    7.81806   -3.30921
       H     0.60406    8.45976   -1.82003
       O    -0.21530    7.99397   -2.05386
      H1    -0.88254    8.63468   -2.28868
       H    -7.44275    7.75253   -4.75792
       O    -6.55670    7.48832   -5.09738
      H1    -6.44512    8.21619   -5.69881
       H   -10.21669    4.51057    0.49630
       O    -9.41729    4.89970    0.00790
      H1    -9.48724    4.84382   -0.95439

