93
frame 5 | Written by MDAnalysis XYZWriter (release 2.4.3)
       H     2.66739    3.36671  -10.68993
       O     3.54163    3.02774  -10.92953
      H1     3.90118    2.46858  -10.24347
       H    -1.62247    3.99215   -8.25431
       O    -2.09710    4.68310   -8.74684
      H1    -1.79345    4.38176   -9.58801
       H    -0.33439    2.80872   -6.23732
       O     0.27631    2.98384   -6.95742
      H1    -0.07970    2.47922   -7.73153
       H    -1.61644    6.41166  -14.33489
       O    -2.28656    5.76771  -14.14670
      H1    -2.27305    5.37571  -13.27685
       H    -3.06253    7.73772   -9.98261
       O    -3.86226    7.29940  -10.37621
      H1    -4.12284    7.73242  -11.14502
       H     4.04077    5.08920   -5.42027
       O     3.91715    5.89090   -5.95852
      H1     3.71200    5.63372   -6.87021
       H     1.37067    8.20074   -9.62377
       O     0.98485    7.94006  -10.44889
      H1     0.99939    6.95381  -10.42572
       H     1.64079    2.76033  -14.72936
       O     0.88694    3.32313  -14.71705
      H1     0.18544    2.92198  -14.15807
       H     4.27080    8.66701  -11.78398
       O     5.09994    8.29527  -11.36703
      H1     5.53529    9.22589  -11.27478
       H     4.96145    3.47036   -7.71925
       O     4.14060    3.06104   -8.13163
      H1     3.74348    2.69021   -7.33383
       H     0.40892    3.84597  -10.30666
       O    -0.13018    3.00059  -10.16017
      H1    -0.45528    2.72198  -11.08708
       H     5.61997    3.70291  -13.74803
       O     5.84720    2.98962  -14.35518
      H1     6.69382    2.58452  -14.14516
       H    -0.68202    5.93695   -8.15777
       O     0.20569    6.19601   -7.94463
      H1     0.01288    6.84038   -7.25702
       H     2.23715    5.60289  -10.55380
       O     1.42181    5.20874  -10.89235
      H1     1.55990    5.26454  -11.88034
       H     4.78675    5.55268  -12.79169
       O     5.04490    4.82225  -12.25983
      H1     4.35096    4.48189  -11.71696
       H     6.99973    5.93188  -10.16021
       O     7.16642    5.25175  -10.85933
      H1     6.32296    5.13454  -11.35516
       H     2.78676    5.93246  -13.87186
       O     1.98537    5.52186  -13.48563
      H1     1.78412    4.78391  -14.13427
       H     0.03797    1.76499  -13.12004
       O    -0.65615    2.39674  -12.80271
      H1    -1.48576    1.79537  -12.87257
       H    -0.70916    8.59080  -15.14024
       O    -0.40938    7.65219  -15.13419
      H1    -0.27202    7.43832  -14.17271
       H     1.12874    8.67841  -15.05549
       O     1.93269    9.16787  -14.95415
      H1     2.14053    9.02622  -14.06282
       H    -0.78164    8.12588   -8.98237
       O    -1.67721    8.30780   -9.24155
      H1    -2.10573    8.81021   -8.47654
       H     4.49225    1.87928  -13.73910
       O     3.87838    1.46627  -13.16239
      H1     3.77404    2.04786  -12.38938
       H    -3.76226    3.80762  -11.22212
       O    -3.36450    4.69813  -11.49725
      H1    -3.83614    5.38926  -10.95473
       H     2.41348    1.04469   -6.27026
       O     2.11700    1.10997   -7.18566
      H1     1.52311    1.85354   -7.13583
       H     1.92954    0.61485  -13.54569
       O     1.08669    0.54719  -13.97299
      H1     0.66263   -0.17915  -13.51869
       H     4.35206    8.17570   -9.34309
       O     4.44655    7.75488   -8.49118
      H1     3.78663    7.05793   -8.52811
       H    -1.96171    8.21327  -12.66704
       O    -1.05033    8.08337  -12.41842
      H1    -1.05221    8.05941  -11.49076
       H     2.26129    9.98214  -12.38226
       O     2.68791    9.12227  -12.34144
      H1     2.06621    8.58282  -11.83479
       H     1.20163    9.03652   -7.24527
       O     1.33761    9.38286   -8.12993
      H1     2.00349   10.08169   -7.94974
       H     3.01730    4.59619   -8.39044
       O     2.78733    5.53248   -8.42510
      H1     1.86120    5.57836   -8.13398
       H     4.57183    6.96405  -14.95249
       O     4.19657    7.10920  -14.05489
      H1     4.62398    7.92242  -13.73090

