93
frame 4 | Written by MDAnalysis XYZWriter (release 2.4.3)
       H   -11.01866    9.62930  -12.73203
       O   -10.76480    8.80367  -13.21251
      H1   -11.49347    8.17544  -13.33508
       H   -11.80744   14.18990  -10.65835
       O   -12.67752   13.82328  -10.31826
      H1   -13.14520   13.49083  -11.04669
       H   -14.01430   12.20533  -12.99953
       O   -14.24605   11.87966  -12.13975
      H1   -15.08336   12.33397  -12.02309
       H   -15.45362   14.18912  -13.80628
       O   -16.14114   14.81038  -13.55667
      H1   -16.28592   15.30583  -14.39077
       H   -12.84119    6.99445  -15.89838
       O   -13.12527    7.35894  -16.74792
      H1   -13.30560    8.32827  -16.53597
       H   -15.70428   17.35559  -18.95322
       O   -15.47645   17.41562  -17.99363
      H1   -15.89907   16.69419  -17.50574
       H   -10.25164   14.24773  -14.26680
       O   -10.63413   13.71682  -13.60660
      H1   -10.08756   12.91525  -13.74701
       H   -14.22340   10.16860  -19.04596
       O   -14.99563    9.91586  -19.53514
      H1   -14.96174    8.97344  -19.55314
       H   -16.28709   10.43984  -18.41037
       O   -16.82590   10.36519  -17.61752
      H1   -16.72858    9.52128  -17.21171
       H   -17.08472   13.06714  -13.43019
       O   -17.11395   12.24573  -14.02321
      H1   -17.59321   11.48755  -13.59260
       H   -12.62228   13.80836  -14.02040
       O   -13.49110   13.49062  -14.19341
      H1   -13.38199   13.37956  -15.13656
       H    -9.88510   10.76844  -15.41607
       O   -10.61871   10.11430  -15.56798
      H1   -10.54973    9.66946  -14.68512
       H   -16.41073   14.19223  -11.47189
       O   -16.07031   13.52022  -10.85849
      H1   -15.53139   13.94931  -10.20620
       H   -14.44301   17.03522  -11.99628
       O   -14.26160   16.10560  -11.94126
      H1   -14.93511   15.67934  -12.47017
       H   -13.21717   15.91701  -19.80152
       O   -13.39047   15.58992  -18.88567
      H1   -13.80482   16.34831  -18.42968
       H   -12.10228   15.20674  -17.47498
       O   -11.41037   15.67548  -17.04378
      H1   -10.76456   15.06919  -16.68708
       H   -11.97737   11.73824  -19.03081
       O   -12.35933   12.67348  -19.00111
      H1   -12.27554   12.93613  -19.97696
       H    -7.92752   15.79917  -16.22122
       O    -8.32366   14.92328  -15.99096
      H1    -8.02073   14.82246  -15.12874
       H   -10.97625    9.90099  -18.19799
       O   -11.21650   10.17986  -19.09487
      H1   -11.19645    9.42176  -19.68543
       H    -9.96414   16.35083  -18.41258
       O    -9.28628   16.69891  -19.07840
      H1    -9.28076   17.67751  -19.03302
       H   -14.53560   10.54093  -15.44663
       O   -15.14266   10.52640  -14.65254
      H1   -15.58561   11.40434  -14.63255
       H   -18.29883   12.66948  -15.43643
       O   -18.42653   12.82401  -16.39648
      H1   -18.21037   11.92747  -16.68350
       H   -11.99843   16.62845  -15.65724
       O   -11.95217   17.00371  -14.75195
      H1   -12.84897   17.32872  -14.60912
       H   -13.41585   12.84829  -17.83643
       O   -13.89053   12.84088  -17.00057
      H1   -14.60768   13.46746  -17.13649
       H   -13.37188   11.25396  -16.52662
       O   -13.09850   10.29849  -16.43108
      H1   -12.36517   10.26836  -15.82423
       H   -10.11148   14.53373  -11.78306
       O   -10.12288   14.48722  -10.84060
      H1   -10.27661   15.44317  -10.52994
       H   -16.03485   18.14746  -14.26311
       O   -15.14624   18.49573  -14.07426
      H1   -15.26784   18.93657  -13.23806
       H   -13.55317    9.41102  -11.89895
       O   -13.67525    8.79316  -12.68188
      H1   -14.29103    9.32176  -13.23401
       H    -7.92915   11.79409  -14.75472
       O    -8.77668   11.81164  -14.35528
      H1    -8.63006   11.31018  -13.53222
       H   -10.38940   13.02906  -18.66993
       O    -9.49295   12.72598  -18.70021
      H1    -9.26984   11.92618  -19.23820
       H   -16.42927   13.89018  -18.21670
       O   -16.22259   14.10464  -17.28240
      H1   -16.93064   13.64644  -16.88706

