93
frame 6 | Written by MDAnalysis XYZWriter (release 2.4.3)
       H     9.02718  -11.99486    9.55238
       O     9.22239  -12.86218    9.13777
      H1     8.61725  -13.46708    9.64427
       H    16.69994  -11.12217   14.08440
       O    16.43876  -11.87380   14.68538
      H1    15.54745  -11.62680   15.07503
       H    11.66351  -16.66872   12.13751
       O    12.15149  -17.03531   11.40626
      H1    11.56665  -17.64556   10.96138
       H     5.08852   -9.99971    9.49223
       O     5.37952  -10.74256   10.15098
      H1     6.30227  -10.49137   10.29066
       H     9.02064  -13.79496   13.55650
       O     9.32653  -14.57076   14.00757
      H1     8.90539  -14.58832   14.89668
       H     8.00032  -11.17584   11.55511
       O     8.04436  -10.76130   10.66197
      H1     8.56398  -10.00997   10.87959
       H     8.76134  -13.47446    7.39471
       O     8.21962  -14.04055    6.82033
      H1     8.45123  -13.80214    5.89141
       H    12.20631  -13.39059   14.68563
       O    11.59935  -13.41926   15.42624
      H1    10.82633  -13.84305   15.05693
       H    11.43813  -11.78056   14.92642
       O    11.44322  -10.82026   14.90696
      H1    11.54207  -10.69386   13.96551
       H     5.03107  -13.66320   12.41856
       O     5.73217  -14.04793   12.92192
      H1     6.20417  -14.59636   12.29650
       H    10.15491  -16.03665   13.88937
       O    10.84366  -16.73911   13.96206
      H1    10.40798  -17.50075   13.62580
       H    13.24747  -11.22125   15.73549
       O    14.10859  -10.94851   16.10759
      H1    14.05599  -11.22906   17.01115
       H    14.07827  -13.02951   10.31045
       O    14.06714  -12.11334    9.98631
      H1    13.24007  -11.97182    9.56846
       H     8.14750   -8.63400   13.74355
       O     8.71127   -7.99460   13.28241
      H1     9.00625   -8.39353   12.40630
       H    11.09586   -6.18925   14.51417
       O    11.36504   -6.96690   14.01577
      H1    10.50977   -7.38400   13.80002
       H    11.08826   -9.52249   16.48093
       O    10.69324   -9.25930   17.31811
      H1    10.74814  -10.04950   17.84940
       H    13.76576   -7.76216    8.81401
       O    14.06397   -8.72214    8.91656
      H1    13.53593   -9.21939    8.30233
       H    14.59082   -7.87719   14.51150
       O    13.97059   -8.07714   13.82283
      H1    13.18909   -7.46283   13.80219
       H    11.26046  -11.91550   11.80582
       O    11.41438  -10.99562   12.09757
      H1    12.32463  -10.78436   12.19723
       H    10.78284   -9.19334   11.35954
       O    10.08844   -8.61605   11.00476
      H1    10.50690   -7.74190   10.76494
       H    15.25611  -13.03881    8.38695
       O    15.61319  -12.80983    7.49463
      H1    16.52123  -13.16768    7.46180
       H    14.01364  -13.85885   13.87319
       O    13.37632  -13.37640   13.42591
      H1    13.68793  -12.49765   13.42781
       H     7.52562  -11.59568   13.63025
       O     7.87762  -12.39373   13.12914
      H1     7.15302  -13.02916   13.12434
       H    12.59612  -14.63024    9.31362
       O    12.39145  -14.91983    8.40650
      H1    12.80471  -14.31157    7.75309
       H    14.26698   -9.74999   13.32679
       O    14.09249  -10.57635   12.84197
      H1    14.38393  -10.30977   11.92326
       H    13.25062  -15.56797   11.14133
       O    13.20971  -14.56260   10.94468
      H1    12.91091  -14.27165   11.78944
       H     7.26864   -9.64756   15.05214
       O     6.95827   -9.94396   14.15893
      H1     6.01756   -9.93783   14.20187
       H     7.12856  -15.26101    9.52385
       O     7.35889  -14.65712   10.23941
      H1     7.60236  -15.16158   11.04494
       H    15.83519  -10.73209   10.37934
       O    15.69720   -9.80047   10.73439
      H1    15.04449   -9.49916   10.05003
       H    11.22098  -12.23156    7.93289
       O    12.03144  -11.66458    7.97624
      H1    12.22953  -11.33430    7.10890
       H    10.17209   -9.09922    9.40347
       O    10.24704   -9.37888    8.45649
      H1    10.97874  -10.03012    8.48258

