93
frame 6 | Written by MDAnalysis XYZWriter (release 2.4.3)
       H    -7.26126    0.46027   11.18491
       O    -6.64195   -0.24311   11.02630
      H1    -5.92041    0.01919   11.59097
       H    -6.56949   -7.31074   10.15191
       O    -7.46536   -7.49959    9.79371
      H1    -7.47304   -8.46932    9.76811
       H    -3.81941   -2.85019   11.72146
       O    -3.52655   -1.96777   11.36624
      H1    -3.46000   -1.51453   12.22812
       H    -6.06329   -4.70885   18.00121
       O    -6.45751   -4.88324   18.88084
      H1    -5.78195   -4.91266   19.53768
       H    -4.37610   -4.89179   12.74889
       O    -4.68567   -4.50487   11.90742
      H1    -4.49772   -5.26964   11.34095
       H    -7.90062   -4.17440   11.80177
       O    -7.40248   -4.47968   12.56059
      H1    -6.47215   -4.36673   12.28506
       H    -1.50090   -1.00053   13.97951
       O    -2.39907   -0.99065   13.64430
      H1    -2.80054   -0.14791   13.92454
       H     0.13519   -8.80678   12.44851
       O     0.54401   -7.98052   12.42313
      H1     0.13575   -7.41859   11.75851
       H    -8.21070   -4.59457    9.73749
       O    -8.09318   -3.64159    9.93761
      H1    -7.18687   -3.40416    9.76208
       H    -1.56544   -6.66574    9.50177
       O    -1.17878   -7.26228   10.23436
      H1    -1.60706   -6.81781   11.04520
       H    -2.26226   -9.35146   12.10893
       O    -1.41832   -9.70353   11.69063
      H1    -1.18829   -9.37189   10.81418
       H    -6.42682   -7.87018   15.30025
       O    -6.33819   -7.17074   14.62482
      H1    -6.89718   -7.46214   13.88212
       H    -0.96462   -3.93864   14.54698
       O    -1.90263   -3.67139   14.84324
      H1    -1.72981   -2.86515   15.23254
       H    -4.39028   -7.41684   11.27491
       O    -4.86894   -6.88951   10.65862
      H1    -4.53136   -7.12000    9.77365
       H    -2.06679   -4.88850   11.13597
       O    -1.72335   -5.17901   12.04506
      H1    -2.38024   -4.89862   12.64682
       H    -1.50281   -6.33608   15.60017
       O    -0.78782   -6.87562   15.84186
      H1    -0.04177   -6.79648   15.23988
       H    -5.25354  -11.04546   13.61561
       O    -5.52401  -10.14721   13.74051
      H1    -5.83718  -10.10115   14.61705
       H    -1.62946   -1.13471   11.33077
       O    -0.81952   -1.28690   10.81529
      H1    -1.06396   -1.75784    9.99514
       H    -6.64934   -1.64931   14.12651
       O    -6.33203   -2.53879   14.28492
      H1    -6.83981   -3.15599   13.81082
       H    -5.82550   -1.77083    9.05657
       O    -5.56823   -2.61787    9.48965
      H1    -5.02500   -2.29561   10.22936
       H    -8.96406   -6.65065   11.35016
       O    -9.27593   -6.60206   12.30016
      H1    -8.71567   -5.89062   12.68465
       H    -2.04360   -4.22247    9.04194
       O    -2.29958   -5.04346    9.52882
      H1    -3.28966   -5.09195    9.47773
       H    -4.38064   -8.80206   13.09368
       O    -3.73200   -8.20173   12.73242
      H1    -3.55997   -7.52131   13.38323
       H     1.08540   -4.15500   13.44056
       O     0.85108   -4.33784   14.38092
      H1     1.15181   -5.27919   14.47870
       H    -8.49024   -1.82882   16.26767
       O    -8.91445   -2.37329   15.64654
      H1    -8.56233   -1.91334   14.89568
       H    -0.19504   -4.17999   11.82768
       O     0.65713   -3.60439   11.75575
      H1     0.25688   -2.81967   11.37234
       H    -8.35525   -4.75344   15.65734
       O    -7.90914   -5.48650   16.17537
      H1    -7.27946   -5.82536   15.56223
       H    -5.71161   -2.39576   15.85155
       O    -5.53637   -2.11953   16.77823
      H1    -4.96121   -1.36784   16.63354
       H    -5.18597   -3.96425    8.38970
       O    -5.05979   -4.93658    8.21699
      H1    -5.30546   -5.15134    7.26571
       H    -3.34900   -6.61601   17.34584
       O    -3.38104   -5.76487   16.83447
      H1    -3.09892   -5.06488   17.40498
       H    -4.82489   -6.18759   14.11692
       O    -3.93574   -5.83907   14.03914
      H1    -3.73692   -5.50090   14.91441

