93
frame 6 | Written by MDAnalysis XYZWriter (release 2.4.3)
       H     1.25205   15.92283   -1.61458
       O     0.44105   15.57624   -1.15518
      H1    -0.05069   15.08455   -1.80874
       H     2.55365   10.37333   -1.78925
       O     2.47719    9.67279   -2.44343
      H1     2.65349    8.79704   -2.10247
       H    -2.09908   14.11191    3.39525
       O    -2.17675   15.05120    3.41232
      H1    -2.54961   15.27216    2.56072
       H     6.30525   11.26755   -1.19660
       O     5.49652   10.72442   -1.19827
      H1     5.24401   10.65618   -2.15208
       H     2.36754   19.55163    0.00479
       O     2.13456   19.07508    0.82441
      H1     1.23508   18.77883    0.59328
       H     2.79991   12.55820   -0.48935
       O     3.01450   11.65609   -0.60843
      H1     3.97771   11.64634   -0.81205
       H     2.49633   16.90180   -2.78899
       O     2.54587   15.92392   -2.75462
      H1     3.26198   15.71501   -2.07960
       H     0.67187   18.88279    4.58156
       O     0.86966   17.99538    4.93160
      H1     1.35358   18.18752    5.76836
       H     3.75343   15.07211    2.53857
       O     3.11889   15.47422    1.85548
      H1     2.62238   16.13426    2.34095
       H    -1.84716   11.21024   -1.25558
       O    -1.99516   11.23274   -2.24961
      H1    -2.90581   11.18440   -2.34549
       H     6.52202   15.83016    0.61086
       O     6.92989   15.46909   -0.19303
      H1     7.89321   15.54497   -0.10148
       H     1.85710   13.78897    5.25797
       O     1.82775   13.97348    6.17139
      H1     2.30232   13.20599    6.56191
       H    -0.65599   15.84266    3.21433
       O     0.27795   16.17927    3.15976
      H1     0.34092   16.94381    3.82043
       H     1.90882   13.87862    1.36016
       O     1.33387   13.55789    0.63554
      H1     1.06446   14.27985    0.05633
       H     3.82488   18.60022   -0.70640
       O     3.95885   19.43520   -1.18256
      H1     3.58472   19.21513   -2.08025
       H     3.68313    8.51323    2.76736
       O     2.97206    8.87438    2.20709
      H1     3.00226    9.86547    2.38517
       H    -0.71604   18.30065    1.51988
       O    -0.53206   18.02224    0.58811
      H1    -0.33291   17.09207    0.54465
       H    -0.73078    9.38866    2.95981
       O    -1.52819    9.94867    2.68625
      H1    -2.27222    9.41837    2.96212
       H     6.82278   14.58796    3.51662
       O     7.23533   15.30272    3.92885
      H1     6.94392   15.25041    4.84805
       H    -1.06833   11.76903    4.89569
       O    -0.94707   12.32333    4.13278
      H1    -1.19501   11.70394    3.45142
       H     5.37921   11.32540    3.23389
       O     5.89064   10.83029    3.88779
      H1     5.41996   10.00001    4.06587
       H    -0.80397   11.19836    0.94113
       O    -0.42902   11.50450    0.08094
      H1     0.06437   12.31274    0.27035
       H    -0.74004    9.35309    0.08217
       O    -0.85038    8.48763   -0.28661
      H1    -0.54099    8.58967   -1.21656
       H     2.34393   12.25754    2.61895
       O     2.94356   11.65941    2.12337
      H1     2.65707   11.70826    1.18839
       H     4.72649   18.45942    2.50663
       O     3.81262   18.29324    2.82961
      H1     3.25232   18.60263    2.11919
       H     0.58528   13.13884    3.96033
       O     1.32873   13.54449    3.50540
      H1     1.15337   14.45229    3.22577
       H     1.52879    8.43727    3.17551
       O     0.73115    8.53769    3.73524
      H1     0.58496    7.63106    3.99998
       H     7.67029   12.76912    1.69671
       O     6.87097   12.84020    1.14871
      H1     7.00911   13.64614    0.55811
       H     1.59732   12.22324   -2.35534
       O     0.80999   12.78092   -2.55648
      H1     0.07444   12.23783   -2.22331
       H     3.82431   14.77568    0.24762
       O     4.04072   14.60465   -0.68589
      H1     4.95016   14.91633   -0.70749
       H     5.53604   13.09717    2.07972
       O     4.91577   13.41540    2.78032
      H1     4.04551   12.94530    2.60165

