93
frame 5 | Written by MDAnalysis XYZWriter (release 2.4.3)
       H    14.60141  -13.23590    3.92303
       O    14.00378  -13.00745    3.17383
      H1    13.43697  -13.81451    3.10088
       H    17.59816  -12.31484   -5.43548
       O    16.65674  -12.11775   -5.42254
      H1    16.67436  -11.13648   -5.44563
       H    19.63539  -17.78254   -2.84511
       O    19.17351  -17.17814   -3.50964
      H1    18.35503  -16.91589   -3.12482
       H    16.42583  -15.11995    0.50533
       O    16.40434  -14.18131    0.20874
      H1    16.66393  -14.15928   -0.76064
       H    17.57210  -12.99260    0.32860
       O    18.04903  -12.11043    0.26184
      H1    18.85512  -12.27098    0.76141
       H    13.36125  -10.80481   -0.40909
       O    12.71712  -10.14185   -0.78170
      H1    11.98807  -10.63414   -1.13384
       H    17.31069  -10.99412    1.41408
       O    17.28999  -10.32672    2.14889
      H1    16.35217  -10.11658    2.12155
       H    14.07154  -12.52832    1.24148
       O    14.14853  -12.32104    0.28379
      H1    14.97939  -12.74995    0.04030
       H    18.55567  -12.27363    4.26512
       O    17.78728  -11.67963    4.48276
      H1    17.59810  -11.35044    3.60239
       H    16.26841  -13.58959    5.90275
       O    16.04250  -13.71926    4.95411
      H1    16.69313  -13.06686    4.57057
       H    15.80105  -11.93738   -3.91202
       O    15.46767  -11.96660   -3.01080
      H1    15.41104  -10.98560   -2.78532
       H    14.11376   -9.37395    2.67915
       O    14.96678   -9.07964    2.33210
      H1    15.25395   -8.48956    3.09415
       H    12.93818  -11.56619    3.79337
       O    12.51486  -10.82742    4.30890
      H1    13.11178  -10.40648    4.91287
       H    19.42368   -5.83411   -0.60846
       O    18.45779   -5.74411   -0.83564
      H1    18.30681   -4.91676   -0.40907
       H    12.72595  -13.24029   -0.35300
       O    11.87425  -13.65384   -0.58810
      H1    11.97609  -14.55283   -0.20716
       H    14.19518   -9.40588   -1.52178
       O    14.88089   -9.26580   -2.19827
      H1    15.46220   -8.56745   -1.93783
       H    17.10011  -14.73272   -2.65255
       O    17.44644  -13.83446   -2.33485
      H1    16.79143  -13.15994   -2.59740
       H    19.89578   -8.63405    1.59130
       O    19.32153   -7.88069    1.36001
      H1    19.62706   -7.61442    0.45395
       H    17.33415  -16.62958    4.95150
       O    16.73600  -16.29523    4.31152
      H1    16.51953  -15.42080    4.60559
       H    15.39118   -6.94365    0.51869
       O    14.71879   -6.27444    0.64636
      H1    15.21998   -5.49344    0.56253
       H    12.67597  -13.53090   -3.77457
       O    13.18439  -12.80936   -4.12392
      H1    13.95071  -12.53960   -3.55503
       H    18.96903   -6.84454    2.74638
       O    18.46917   -6.30509    3.41723
      H1    18.47064   -5.44422    2.94906
       H    19.11698   -7.59437   -2.65775
       O    18.51164   -7.42834   -3.32893
      H1    18.06668   -6.56432   -3.14200
       H    17.33055  -16.92109    0.85741
       O    16.52611  -16.53913    1.26198
      H1    16.62380  -16.39340    2.23197
       H    19.81414  -13.34626   -4.50140
       O    19.02290  -12.76712   -4.25171
      H1    18.50644  -13.25619   -3.59482
       H    14.46700  -17.81648    2.92186
       O    15.07958  -18.45806    2.41355
      H1    15.81958  -17.89521    2.08915
       H    19.48075  -17.37961   -0.19184
       O    18.77693  -17.89313    0.27667
      H1    18.45256  -18.52914   -0.40466
       H    16.25943   -8.91245   -4.93702
       O    16.92833   -9.42588   -4.53513
      H1    17.39163   -8.76677   -3.97590
       H    17.43610   -7.36965   -0.58923
       O    16.69987   -7.97698   -0.25220
      H1    17.04296   -8.26863    0.61747
       H    16.05972  -16.23110   -3.97764
       O    16.63084  -16.24813   -3.18757
      H1    15.96814  -16.58359   -2.51717
       H    18.74367  -11.41524   -2.81308
       O    18.72749  -10.71233   -2.19142
      H1    18.34580  -11.10287   -1.41096

