93
frame 5 | Written by MDAnalysis XYZWriter (release 2.4.3)
       H     9.53192   18.27628   11.83937
       O     8.79702   17.60975   11.70378
      H1     8.55944   17.46253   12.61691
       H     9.52591   17.46839    2.76939
       O     8.80400   17.99544    3.00244
      H1     8.38326   17.50250    3.68881
       H    12.75389   20.12862   12.37720
       O    13.11626   19.60859   13.11886
      H1    12.98371   18.70929   12.83847
       H    11.19062   19.38644   15.58330
       O    11.16063   18.52930   15.12792
      H1    12.09827   18.24953   15.09609
       H     7.47240   16.77550    8.30032
       O     7.72144   16.01467    8.85092
      H1     7.67327   15.23561    8.28756
       H    12.46461   11.35855    9.07881
       O    11.62934   11.40844    9.60595
      H1    11.67061   12.30597    9.99359
       H    14.61058   17.23823    9.31865
       O    14.79073   17.10678   10.25685
      H1    15.53762   16.47549   10.22600
       H     8.98620   19.86058    9.72676
       O     8.55718   19.10663    9.26973
      H1     8.11785   18.58714    9.94203
       H    14.72875   17.88025    3.47856
       O    13.85415   17.51929    3.12982
      H1    13.28677   17.47865    3.90999
       H    10.24704   16.50140   10.54927
       O    11.16181   16.28691   10.24361
      H1    11.72647   16.45567   11.07145
       H    11.70934   17.58235    8.98607
       O    11.62368   18.39616    8.47299
      H1    10.68705   18.54955    8.41619
       H    16.50966   14.34494    9.35112
       O    17.00206   15.17299    9.51695
      H1    17.23539   15.09929   10.40080
       H    14.06288   18.37399    6.70038
       O    14.60485   17.76150    7.17792
      H1    15.60782   17.89805    6.98762
       H    10.20858   13.88058    6.19956
       O    10.42560   13.16858    5.60339
      H1    11.38810   12.98153    5.61805
       H     7.91037   18.70121    7.59366
       O     7.79927   18.09363    6.85375
      H1     7.10553   18.36256    6.24000
       H    15.82383   19.00442    4.71063
       O    16.07747   18.76845    3.82967
      H1    15.59001   19.48422    3.30359
       H    16.61152   12.39063    8.96825
       O    15.83484   13.01133    8.68941
      H1    16.01880   13.24689    7.78503
       H    14.02403   13.45117    5.70142
       O    13.26235   12.85772    5.83865
      H1    13.48732   11.97502    5.64216
       H     9.17212   16.36321    7.21308
       O     9.66627   15.82594    6.60090
      H1     9.12585   15.61840    5.84558
       H    12.69296   19.32085    9.59991
       O    13.54792   19.58231   10.00600
      H1    13.96788   18.77301   10.39528
       H    16.86425   19.26620    7.92008
       O    17.13029   18.75075    7.09836
      H1    17.71567   19.34789    6.55042
       H    11.51746   19.34710    4.74900
       O    10.60692   19.49238    4.37760
      H1    10.18154   18.63719    4.44563
       H    10.72858   11.06006    8.01569
       O    10.46274   11.05135    7.05522
      H1    10.35275   11.96575    6.76820
       H    15.21882   15.09874   13.14329
       O    14.42358   14.94634   13.66984
      H1    14.02160   14.09439   13.38083
       H    11.90151   17.72470    6.84164
       O    11.80501   17.40914    5.90095
      H1    11.14193   16.75388    6.06889
       H     6.25253   15.65708    9.95640
       O     5.87323   15.14843   10.70996
      H1     4.90361   15.02966   10.56566
       H    10.90648   14.56627   10.38588
       O    11.14183   13.81069   10.89408
      H1    10.34707   13.29964   11.18091
       H    13.06619   16.40169   12.71453
       O    12.84861   17.08949   12.09517
      H1    13.62757   17.15194   11.52142
       H    14.74389   15.70070    6.63399
       O    15.36574   15.04692    6.32019
      H1    15.89165   15.50271    5.69199
       H    11.97310   13.31486   12.23668
       O    12.37249   12.98405   13.04957
      H1    12.78998   12.21358   12.71542
       H    16.97635   16.54726   12.28564
       O    16.85158   15.64004   12.24621
      H1    17.61019   15.24010   12.69737

