93
frame 6 | Written by MDAnalysis XYZWriter (release 2.4.3)
       H     9.02718  -11.99486    9.55238
       O     9.22239  -12.86218    9.13777
      H1     8.61725  -13.46708    9.64427
       H    11.66351  -16.66872   12.13751
       O    12.15149  -17.03531   11.40626
      H1    11.56665  -17.64556   10.96138
       H     6.90001  -17.86961   14.88801
       O     6.98164  -16.89521   14.90629
      H1     6.11097  -16.54748   14.51510
       H     7.67912  -17.98210   17.54611
       O     8.58661  -17.74076   17.86732
      H1     8.60107  -16.78505   17.75101
       H     9.02064  -13.79496   13.55650
       O     9.32653  -14.57076   14.00757
      H1     8.90539  -14.58832   14.89668
       H     8.00032  -11.17584   11.55511
       O     8.04436  -10.76130   10.66197
      H1     8.56398  -10.00997   10.87959
       H     8.76134  -13.47446    7.39471
       O     8.21962  -14.04055    6.82033
      H1     8.45123  -13.80214    5.89141
       H    12.20631  -13.39059   14.68563
       O    11.59935  -13.41926   15.42624
      H1    10.82633  -13.84305   15.05693
       H     5.03107  -13.66320   12.41856
       O     5.73217  -14.04793   12.92192
      H1     6.20417  -14.59636   12.29650
       H    10.15491  -16.03665   13.88937
       O    10.84366  -16.73911   13.96206
      H1    10.40798  -17.50075   13.62580
       H     5.25402  -12.51501    9.87049
       O     4.86188  -13.32713    9.52681
      H1     5.50236  -13.99284    9.75863
       H     6.91455  -17.53641   11.92112
       O     7.38853  -16.76892   12.22603
      H1     7.28320  -16.65092   13.17761
       H     4.18366  -17.47044    7.23470
       O     4.19728  -17.40150    8.23725
      H1     4.48111  -18.25876    8.56096
       H     3.67816  -19.92310   16.12494
       O     4.19110  -19.23066   15.65679
      H1     4.58009  -18.64779   16.31665
       H    11.26046  -11.91550   11.80582
       O    11.41438  -10.99562   12.09757
      H1    12.32463  -10.78436   12.19723
       H     7.95779  -15.98405   16.14482
       O     8.44849  -15.20508   16.41348
      H1     7.86320  -14.52549   16.79918
       H     9.27662  -17.36594    9.14534
       O     9.34460  -17.79793    9.97501
      H1     8.77119  -17.33711   10.51528
       H     7.52562  -11.59568   13.63025
       O     7.87762  -12.39373   13.12914
      H1     7.15302  -13.02916   13.12434
       H     2.72140  -17.93925   12.39362
       O     3.66056  -17.97589   12.26475
      H1     3.86271  -17.48630   11.48279
       H     6.12432  -17.21020   17.96078
       O     5.90099  -18.05500   17.45489
      H1     5.46651  -18.62570   18.09500
       H     9.88884  -18.37494   16.79166
       O    10.74706  -18.70196   16.45756
      H1    10.92505  -18.12972   15.71449
       H    13.25062  -15.56797   11.14133
       O    13.20971  -14.56260   10.94468
      H1    12.91091  -14.27165   11.78944
       H     3.11226  -16.01598    8.92711
       O     2.98035  -15.45286    9.68206
      H1     3.20148  -14.62135    9.29044
       H     6.15754  -12.81024   17.42617
       O     6.15948  -13.74282   17.16944
      H1     5.23404  -14.02088   17.01884
       H     7.12856  -15.26101    9.52385
       O     7.35889  -14.65712   10.23941
      H1     7.60236  -15.16158   11.04494
       H     3.20630  -15.74486   17.08302
       O     3.88630  -15.16361   16.75764
      H1     4.01806  -15.38152   15.82190
       H     2.64622  -13.00346   12.00772
       O     3.62568  -13.06221   11.95544
      H1     3.86240  -13.42598   11.09448
       H     6.27800  -19.30725   13.14475
       O     6.02747  -19.37190   12.22630
      H1     5.17625  -18.87895   12.26933
       H     9.21263  -15.71012    7.44872
       O     9.88355  -16.44545    7.60084
      H1    10.76052  -16.00450    7.66989
       H     4.79777  -15.09478   14.03543
       O     4.64230  -16.01517   14.19971
      H1     4.06176  -16.24568   13.44107
       H     6.87808  -15.25668    7.38620
       O     6.68194  -15.97926    8.00545
      H1     5.74121  -16.21456    7.93141

