93
frame 6 | Written by MDAnalysis XYZWriter (release 2.4.3)
       H    -4.72986   -2.13867  -11.55000
       O    -4.01671   -2.53315  -11.02966
      H1    -3.23098   -2.05355  -11.33847
       H   -10.20489   -1.55675  -10.84389
       O   -10.23353   -1.21769  -11.77505
      H1   -11.10542   -1.47809  -12.08096
       H    -7.78002    0.58820  -14.66515
       O    -7.92553    1.30242  -15.31382
      H1    -7.32194    1.07514  -16.04143
       H    -3.50580   -2.34515  -16.77547
       O    -2.99175   -2.45736  -15.98763
      H1    -3.61022   -2.32640  -15.22450
       H   -12.56295    1.40901  -10.67244
       O   -11.98666    0.71292  -10.24499
      H1   -11.35933    0.47424  -10.94609
       H    -4.80485   -0.38321  -14.93280
       O    -5.47508   -1.06067  -14.86544
      H1    -5.61321   -1.27101  -13.98474
       H   -13.28787   -2.01353  -13.08426
       O   -12.39278   -2.17145  -13.40936
      H1   -12.09901   -1.42783  -13.94482
       H    -7.62672    1.66924  -11.79455
       O    -7.76908    0.72604  -12.05067
      H1    -8.70133    0.46534  -11.92049
       H    -7.36969   -2.51470  -18.47241
       O    -7.31939   -2.20450  -19.41541
      H1    -7.23300   -2.95117  -19.95490
       H   -11.05971    3.59624  -11.73541
       O   -10.29889    3.09538  -12.08002
      H1    -9.52077    3.69635  -12.09221
       H    -9.98674    2.74167  -10.12269
       O    -9.42459    2.62274   -9.33463
      H1    -9.91981    1.88382   -8.88918
       H    -6.83356   -2.23276  -12.21029
       O    -6.18609   -1.52791  -12.16197
      H1    -6.58259   -0.67009  -12.28225
       H   -10.23139   -3.05948  -15.86372
       O    -9.63859   -3.58489  -15.36771
      H1   -10.03054   -3.70120  -14.49641
       H   -10.51687    4.19826  -17.88329
       O   -10.07297    3.41782  -17.47934
      H1   -10.38297    3.14488  -16.57203
       H    -4.11475   -0.64670  -18.80844
       O    -4.00999   -1.47555  -18.37960
      H1    -4.06855   -2.18246  -19.02643
       H    -9.68637    0.31842  -19.13420
       O    -9.36430    1.23841  -19.20768
      H1    -9.59717    1.72608  -18.38381
       H    -7.47321    0.60643  -18.08009
       O    -6.77008    0.15158  -17.58319
      H1    -6.57109   -0.60428  -18.14435
       H    -3.80639    0.29446  -11.68420
       O    -3.10888   -0.22770  -12.11908
      H1    -2.31280   -0.20243  -11.55717
       H    -9.50021    2.22853  -14.85575
       O   -10.46117    2.41382  -14.86119
      H1   -10.50330    2.95549  -14.04486
       H    -4.54549    1.30020  -10.07104
       O    -4.41661    1.89213  -10.86765
      H1    -5.32053    2.06928  -11.11453
       H    -7.22500    4.85291  -16.84581
       O    -7.41642    4.16145  -16.18281
      H1    -8.27899    3.88157  -16.34225
       H    -2.48428    0.47632  -15.10151
       O    -3.36170    0.73281  -14.68590
      H1    -3.26556    0.52788  -13.77506
       H    -3.35531    2.28028  -15.88589
       O    -3.24726    2.78223  -16.68256
      H1    -3.51705    3.66733  -16.40958
       H   -11.11012   -1.75454  -17.97777
       O   -11.26354   -2.06965  -17.07969
      H1   -12.07309   -2.56386  -17.06511
       H    -6.35655    1.91436  -18.73234
       O    -6.81099    2.37694  -19.46690
      H1    -7.62972    1.86344  -19.52013
       H    -8.83523   -3.98877  -12.34533
       O    -7.85714   -3.99084  -12.32085
      H1    -7.54968   -4.39108  -13.13646
       H   -11.53147   -0.72109  -15.96360
       O   -11.79272   -0.06757  -15.31065
      H1   -11.20890    0.66495  -15.43571
       H    -8.05054   -2.87621  -15.73606
       O    -7.14923   -2.78862  -16.26846
      H1    -6.65361   -2.13553  -15.79233
       H    -6.47339   -4.18187  -15.18956
       O    -6.49185   -4.94478  -14.54812
      H1    -6.83579   -5.72190  -14.96086
       H    -6.62018    3.87992  -11.07402
       O    -6.93526    3.32602  -11.84552
      H1    -7.15255    3.98308  -12.54072
       H    -7.61269    4.57313  -14.51830
       O    -7.80096    5.19488  -13.78578
      H1    -7.11729    5.89632  -14.04860

