93
frame 6 | Written by MDAnalysis XYZWriter (release 2.4.3)
       H   -10.20489   -1.55675  -10.84389
       O   -10.23353   -1.21769  -11.77505
      H1   -11.10542   -1.47809  -12.08096
       H    -7.97085   -1.37292   -8.69142
       O    -8.07944   -2.16820   -9.20309
      H1    -7.29489   -2.39045   -9.69155
       H   -16.35529   -5.88609  -13.88635
       O   -16.96555   -5.18773  -14.19215
      H1   -17.81168   -5.57267  -14.31372
       H   -15.99328   -2.52513  -12.54101
       O   -15.10946   -2.85036  -12.26860
      H1   -15.15726   -3.85198  -12.16827
       H   -11.49177   -5.18480  -11.41166
       O   -12.03003   -5.29994  -10.64170
      H1   -11.97347   -4.45431  -10.16564
       H   -14.15566  -10.65707  -13.09752
       O   -13.63617   -9.83664  -13.03966
      H1   -14.19787   -9.09781  -13.33915
       H   -14.70571   -0.91952   -9.34681
       O   -14.78583   -1.84975   -9.64334
      H1   -14.81084   -1.87926  -10.62841
       H    -7.99934   -5.20454  -10.61089
       O    -7.91854   -5.52361   -9.71999
      H1    -7.94172   -6.51048   -9.77232
       H   -15.88850   -5.12545   -9.15760
       O   -16.37202   -4.29266   -9.10440
      H1   -15.72375   -3.59992   -9.23460
       H   -13.69559   -9.42060   -9.41189
       O   -14.22429   -8.63883   -9.44470
      H1   -13.63243   -7.92179   -9.19432
       H    -7.31153   -5.62572   -7.57160
       O    -7.93281   -6.17450   -7.05796
      H1    -7.25661   -6.68459   -6.50931
       H   -13.28787   -2.01353  -13.08426
       O   -12.39278   -2.17145  -13.40936
      H1   -12.09901   -1.42783  -13.94482
       H   -11.49306   -7.51473  -16.46283
       O   -11.60679   -6.63108  -16.14927
      H1   -10.89327   -6.07512  -16.54408
       H   -11.31934   -8.20870  -10.21102
       O   -11.30220   -8.30533  -11.14789
      H1   -11.88863   -7.55617  -11.46705
       H   -15.08159   -7.42637  -14.77822
       O   -15.45566   -7.79394  -14.02334
      H1   -16.07484   -8.44598  -14.41989
       H    -8.62925  -10.04441  -12.29412
       O    -9.39740   -9.75903  -12.79253
      H1   -10.05666   -9.33710  -12.23590
       H    -7.40395   -9.16190  -10.20376
       O    -7.61808   -8.37808   -9.67843
      H1    -6.77719   -7.97621   -9.48939
       H   -11.53005   -5.00864  -13.27712
       O   -10.62994   -4.96869  -12.85394
      H1   -10.42622   -5.90276  -12.68534
       H   -10.23139   -3.05948  -15.86372
       O    -9.63859   -3.58489  -15.36771
      H1   -10.03054   -3.70120  -14.49641
       H   -12.06798   -6.45135   -9.35056
       O   -12.25873   -7.05643   -8.62048
      H1   -11.50626   -7.27309   -8.07016
       H   -10.44635   -8.48516   -6.24225
       O   -10.36787   -7.63423   -6.66255
      H1    -9.45978   -7.49201   -7.00695
       H   -12.71472   -4.44138   -5.18709
       O   -12.46960   -4.61034   -4.27073
      H1   -12.79378   -3.89622   -3.68055
       H   -12.21871   -8.25756  -13.39975
       O   -12.33104   -7.29636  -13.48956
      H1   -12.03576   -7.18044  -14.43835
       H   -12.41867   -3.36944   -8.30306
       O   -12.23852   -2.91206   -9.12038
      H1   -12.97604   -2.37032   -9.34474
       H   -15.95084   -7.73681  -10.21857
       O   -16.34945   -6.82626  -10.13700
      H1   -16.00210   -6.43494  -10.92784
       H   -14.83524   -3.11538  -15.97197
       O   -13.91986   -3.36328  -15.67678
      H1   -13.82686   -3.02527  -14.76629
       H    -9.21339   -4.85715   -7.10960
       O    -9.59091   -4.00911   -7.41317
      H1    -9.10305   -3.94753   -8.21824
       H    -8.83523   -3.98877  -12.34533
       O    -7.85714   -3.99084  -12.32085
      H1    -7.54968   -4.39108  -13.13646
       H   -11.50609  -10.97065   -9.44407
       O   -12.04510  -10.39477   -8.84838
      H1   -12.56153  -11.03311   -8.32376
       H   -12.39243   -5.53987   -7.46746
       O   -12.21924   -4.71379   -6.94342
      H1   -11.23666   -4.58395   -6.97628
       H   -14.30173   -6.10510  -12.78077
       O   -14.47392   -5.51263  -12.07678
      H1   -13.65825   -5.37359  -11.56805

