93
frame 6 | Written by MDAnalysis XYZWriter (release 2.4.3)
       H    12.31269    9.57643  -13.73635
       O    12.07599   10.51607  -13.80252
      H1    12.85397   10.99377  -14.20867
       H    15.58534    2.78468  -17.56613
       O    16.36526    3.25300  -17.89154
      H1    16.41998    2.96772  -18.83694
       H    16.77833   13.35862  -16.56089
       O    16.90544   13.01226  -15.65554
      H1    16.90572   13.81207  -15.03528
       H    19.00335    4.65016  -10.11361
       O    18.78755    5.57157  -10.53843
      H1    19.17475    5.51115  -11.44709
       H    14.89778   -0.83889  -16.12570
       O    14.98431   -0.07507  -15.60127
      H1    15.96212    0.13810  -15.38697
       H    13.62897    1.59217  -17.71697
       O    14.04328    2.05890  -16.97044
      H1    14.32479    1.34885  -16.33130
       H    15.99922   12.46968  -12.04220
       O    16.93925   12.21270  -12.11876
      H1    17.36065   12.58846  -11.30874
       H    13.92689    6.39240  -16.67533
       O    14.53229    6.89574  -17.19108
      H1    15.35064    6.34438  -17.31367
       H    12.97862    3.34724  -12.96494
       O    12.78906    3.40708  -12.06403
      H1    11.86530    3.64742  -12.00272
       H    18.42446   12.18524  -15.27516
       O    19.26744   12.15406  -14.86530
      H1    19.44430   11.29849  -14.46811
       H    18.00689   -0.36159  -14.51006
       O    17.59780    0.45780  -14.86146
      H1    17.76512    0.46875  -15.83621
       H    18.91595    5.71589  -17.15697
       O    19.71003    5.85790  -16.64802
      H1    20.16615    5.02210  -16.67697
       H    17.43246   10.50075  -17.94703
       O    16.58222   10.91089  -18.11753
      H1    16.66495   11.87265  -18.12864
       H    11.71708    6.40751  -15.23318
       O    12.36023    5.96631  -15.71939
      H1    12.36518    5.09051  -15.38020
       H    14.17150    8.04860  -12.93726
       O    13.25027    7.82867  -13.12060
      H1    12.82917    7.79682  -12.29922
       H    14.78792    8.78469  -16.24255
       O    14.99581    9.70526  -15.94660
      H1    15.43831   10.05803  -16.73862
       H    18.90013    9.74576  -19.26020
       O    19.07470    9.63913  -18.30478
      H1    19.98680    9.58762  -18.31959
       H    14.50005   11.46744  -15.29449
       O    14.00168   12.19067  -14.91836
      H1    14.53020   12.41339  -14.06204
       H    16.72887    4.90837  -17.73889
       O    17.22620    5.77529  -17.63844
      H1    17.48998    6.22081  -18.51191
       H    16.23325    9.14945  -11.58618
       O    15.81498    8.79717  -12.35228
      H1    16.42856    8.21458  -12.80917
       H    16.48608    3.34734  -14.16821
       O    16.93718    2.74187  -13.63089
      H1    17.21409    1.96643  -14.15891
       H    16.58354    2.43305  -11.81095
       O    16.58744    2.37605  -10.86684
      H1    16.10007    3.10567  -10.48678
       H    12.76172    2.83469  -15.76823
       O    12.37151    3.23946  -14.92364
      H1    11.47517    3.05621  -15.17368
       H    16.31358    9.99888   -9.81697
       O    17.11386   10.12460  -10.33486
      H1    16.90931   10.72061  -11.01839
       H    17.71996    6.51134  -15.44293
       O    17.64630    6.81583  -14.51708
      H1    17.88384    7.71508  -14.72655
       H    13.42813    6.93092  -18.64135
       O    13.36090    6.83796  -19.63057
      H1    12.37465    6.78695  -19.80815
       H    14.07624    5.59736  -13.57552
       O    14.61567    5.02126  -13.07516
      H1    14.07724    4.45869  -12.50619
       H    17.25043    9.90483  -13.90649
       O    17.45036    9.75359  -14.81999
      H1    16.52570    9.77420  -15.18656
       H    17.00774    5.37533  -10.37840
       O    16.03962    5.19916  -10.34769
      H1    15.65549    5.37516  -11.25122
       H    19.10334    1.44706  -17.49858
       O    18.16072    1.26144  -17.59375
      H1    17.63980    2.05300  -17.76907
       H    18.45063    2.31479  -12.38560
       O    19.32500    1.96738  -12.09881
      H1    19.61671    1.37784  -12.73146

