93
frame 0 | Written by MDAnalysis XYZWriter (release 2.4.3)
       H    -6.89018  -16.80739   11.44504
       O    -5.94213  -16.73653   11.39164
      H1    -5.61387  -17.34342   10.75272
       H   -10.49317  -15.75235   12.43743
       O   -11.30787  -15.36414   12.81452
      H1   -11.73240  -14.84968   12.10141
       H    -5.35529  -18.79329   14.20414
       O    -5.13588  -19.65558   13.86180
      H1    -4.14643  -19.61594   13.92968
       H    -5.18912  -16.17514   14.63621
       O    -4.99292  -16.97221   14.20931
      H1    -5.03765  -16.62927   13.32666
       H   -11.84301  -14.07578   16.67757
       O   -11.25358  -13.72363   17.38093
      H1   -11.52638  -12.80841   17.67661
       H    -7.76875  -14.25564   15.99183
       O    -7.30436  -14.91811   15.44732
      H1    -7.30216  -14.68043   14.52384
       H    -8.16917  -11.80755   10.59523
       O    -7.46616  -11.95151   11.27793
      H1    -7.59440  -11.41892   12.10428
       H    -9.43168  -17.52026   12.39175
       O    -8.99366  -16.86037   11.87000
      H1    -9.40761  -16.93015   11.01257
       H    -7.57701  -13.40168   12.33256
       O    -7.80627  -14.27145   12.83776
      H1    -8.28282  -14.84750   12.20771
       H    -2.28421  -16.03266   15.05410
       O    -2.54440  -16.89509   15.39640
      H1    -3.39573  -16.97579   14.89356
       H    -2.91489  -12.05982   18.52964
       O    -3.66344  -11.57345   18.89809
      H1    -3.90347  -11.07892   18.09181
       H   -13.61827  -11.66476   14.94317
       O   -13.29832  -12.30967   14.35236
      H1   -12.31676  -12.14795   14.30311
       H    -1.89937  -15.49427   18.09965
       O    -2.84656  -15.79195   18.00452
      H1    -2.76859  -16.32803   17.11036
       H    -3.09450  -11.79048   12.31479
       O    -3.03539  -12.44174   13.09407
      H1    -3.57157  -13.22682   12.87570
       H    -3.76615  -13.19975   15.81342
       O    -3.62166  -12.21804   15.77834
      H1    -3.50320  -11.97543   14.84194
       H   -12.47011  -17.40092   12.77263
       O   -12.42412  -17.83631   13.66884
      H1   -11.61829  -17.44726   14.06156
       H    -9.57606  -15.97295   17.18778
       O    -9.12751  -16.52481   16.61147
      H1    -8.41420  -15.88320   16.17978
       H    -4.37453  -14.98520   11.49551
       O    -4.66976  -14.38141   12.19517
      H1    -5.53636  -14.61437   12.42331
       H    -8.28159  -17.91949   17.46605
       O    -8.06167  -18.75544   18.00325
      H1    -7.11626  -18.77763   18.12051
       H    -9.45869  -19.11188   14.65150
       O    -9.66741  -18.21879   14.46910
      H1    -9.32346  -17.55771   15.07206
       H    -7.67722  -10.14324   14.00589
       O    -8.14595  -10.28576   13.18738
      H1    -8.10377   -9.36988   12.82260
       H    -8.85981  -12.65302   15.37770
       O    -8.66829  -12.79082   16.28178
      H1    -9.43298  -13.31194   16.59917
       H   -13.14472  -14.08904   14.95154
       O   -12.62645  -14.79503   15.25623
      H1   -12.04394  -15.00584   14.50504
       H    -1.80588  -13.73616   14.23636
       O    -1.56427  -14.65970   14.07684
      H1    -1.61161  -14.71341   13.15481
       H    -5.36575  -10.48835   15.03925
       O    -6.26332  -10.59916   15.33638
      H1    -6.20663  -10.86674   16.25731
       H    -9.78581  -13.97357   20.11060
       O   -10.04663  -14.77921   19.61901
      H1   -10.54084  -14.42439   18.86234
       H    -5.46383  -14.64989   19.58458
       O    -5.50708  -13.89549   18.98086
      H1    -4.72906  -13.32553   19.00647
       H   -10.09736  -11.17734   12.76184
       O   -11.03398  -11.25799   13.08324
      H1   -11.49356  -11.04305   12.23672
       H    -4.43355  -14.85800   16.91039
       O    -4.64578  -14.82948   15.95830
      H1    -5.61383  -14.61761   15.90097
       H    -5.94672  -11.93084   10.31706
       O    -5.31706  -11.96902    9.49145
      H1    -5.36520  -12.80473    9.02628
       H    -7.27122  -11.83318   17.57132
       O    -6.65832  -11.42218   18.20408
      H1    -6.16091  -12.20356   18.46067

