93
frame 7 | Written by MDAnalysis XYZWriter (release 2.4.3)
       H    15.26301  -10.62013   13.94433
       O    15.30191  -11.27615   14.57956
      H1    14.58538  -10.98877   15.20852
       H     8.61369  -18.94670   16.89111
       O     9.16747  -18.47072   17.48237
      H1     9.05985  -17.57604   17.13214
       H     9.03961  -14.09476   13.99369
       O     9.67301  -14.66593   14.43221
      H1     9.20404  -15.11746   15.18321
       H    15.83702  -15.17467   17.48067
       O    16.09739  -15.97738   17.84307
      H1    17.05623  -16.00848   17.74794
       H     8.62901  -15.57379   19.37848
       O     9.45600  -15.08464   19.45898
      H1     9.37937  -14.17531   19.00283
       H    12.85507  -13.57468   15.11523
       O    12.03271  -13.34968   15.59688
      H1    11.34181  -13.96309   15.28853
       H    18.53973  -15.15058   16.55905
       O    18.66140  -15.83454   17.25969
      H1    19.12653  -16.55297   16.84880
       H    11.58280  -11.76927   14.71076
       O    11.19485  -10.95037   14.37697
      H1    11.28842  -11.01031   13.40315
       H    16.36618  -15.97673   13.47261
       O    16.97256  -15.95526   12.73059
      H1    17.81768  -16.41439   12.92376
       H    10.58446  -16.02449   14.07931
       O    11.23041  -16.79578   14.06753
      H1    10.83345  -17.45090   13.49806
       H    16.61328  -17.96668   17.64116
       O    16.72568  -18.43119   16.82770
      H1    16.66775  -19.38116   16.92201
       H    12.53700  -10.02784   15.90777
       O    13.34777  -10.25771   16.41598
      H1    13.65804   -9.42962   16.74862
       H    10.45633  -10.21430   15.74355
       O    10.29187   -9.92979   16.67927
      H1    10.57948  -10.66269   17.24684
       H    11.09545   -8.05343   17.45181
       O    11.28540   -7.27184   17.97261
      H1    11.04885   -7.40572   18.90119
       H    10.01622  -12.07170   19.55514
       O    10.27431  -12.51927   18.75882
      H1    11.22411  -12.69802   18.86107
       H    14.89989  -12.99871   17.72559
       O    15.55838  -13.34145   17.16372
      H1    16.21762  -12.67193   16.96044
       H    18.10953  -12.18208   15.73313
       O    17.61120  -11.47741   16.19372
      H1    16.83125  -11.27019   15.68410
       H     6.60693  -11.72934   18.55498
       O     6.27366  -11.38341   17.70091
      H1     6.71330  -10.58115   17.52287
       H    16.57818  -13.02535   14.42491
       O    17.33220  -13.50593   14.14165
      H1    16.98537  -14.18400   13.50307
       H     7.82226  -16.61615   15.55991
       O     8.46719  -16.27212   16.19909
      H1     7.98661  -15.73027   16.85682
       H    12.45330  -16.93124   19.45621
       O    11.61096  -17.43057   19.50508
      H1    10.93787  -16.73496   19.33868
       H    14.37840  -14.48492   14.31463
       O    14.01412  -13.66516   13.93991
      H1    14.60446  -12.96378   14.29389
       H    15.49517   -9.07789   19.96830
       O    16.04947   -9.11411   19.17520
      H1    16.37136   -9.99244   19.29074
       H    14.66919   -7.69687   17.53639
       O    13.98592   -7.08177   17.14279
      H1    13.20406   -7.01500   17.69252
       H    13.09453  -14.13442   18.39380
       O    12.93541  -13.18552   18.25301
      H1    12.53272  -13.21857   17.34519
       H    19.84888   -9.60815   16.26357
       O    19.09100   -9.41468   16.83190
      H1    18.45542  -10.12555   16.59025
       H    10.51308  -18.46578   16.57957
       O    11.26875  -18.72916   16.05601
      H1    11.43523  -17.94852   15.49780
       H    12.56971  -14.62616   11.23929
       O    12.39334  -13.71248   10.96574
      H1    11.97009  -13.40921   11.81298
       H    15.80523  -16.04441   15.63081
       O    15.21985  -15.95108   14.90050
      H1    14.79705  -16.86483   14.90007
       H     7.48042   -8.29171   17.25526
       O     7.69071   -9.09010   16.79402
      H1     8.55953   -9.45121   17.02430
       H    14.12315  -19.12803   16.70417
       O    13.59800  -18.94034   17.50108
      H1    12.78877  -18.57278   17.26611

