93
frame 7 | Written by MDAnalysis XYZWriter (release 2.4.3)
       H    17.30906  -13.72428   -6.57272
       O    16.90975  -14.19385   -7.31527
      H1    16.85165  -13.54705   -8.05959
       H    18.13394   -9.29849   -9.12990
       O    18.05926  -10.09339   -8.58151
      H1    17.88653   -9.80389   -7.69997
       H    10.82924   -9.41084  -11.52848
       O    10.88495   -8.47792  -11.33913
      H1    11.14398   -8.14492  -12.21054
       H    11.86225   -7.86393  -10.11044
       O    12.52101   -7.59132   -9.47898
      H1    13.31823   -8.16771   -9.57655
       H    16.80518  -11.54736   -4.32543
       O    16.56686  -11.05125   -3.51858
      H1    16.10409  -10.16216   -3.70143
       H    16.89439   -5.49193  -11.62089
       O    16.47306   -6.01115  -12.27721
      H1    16.34378   -6.91256  -11.93639
       H    11.76939  -12.80558   -9.34320
       O    10.89285  -12.66647   -9.76885
      H1    10.35485  -13.44842   -9.79614
       H    14.22080  -11.77002   -7.34628
       O    14.57833  -11.07743   -6.72567
      H1    15.53319  -11.11276   -6.90226
       H    12.42605  -11.76315   -5.02641
       O    11.62622  -11.20912   -4.92916
      H1    11.08316  -11.30437   -5.73189
       H    13.90875  -13.07133  -11.29496
       O    14.64047  -13.51253  -10.82684
      H1    14.80387  -14.24089  -11.40842
       H     9.23411  -11.39277   -7.48315
       O    10.05577  -11.76457   -7.08711
      H1    10.61639  -11.84513   -7.86268
       H    13.13948   -9.75652   -5.23883
       O    13.37813   -8.84945   -5.09183
      H1    13.87558   -8.75499   -4.23696
       H    14.09911   -9.94312   -8.34799
       O    14.53524   -9.16179   -8.85071
      H1    14.80055   -8.63847   -8.06406
       H    14.44188  -13.74182   -5.33971
       O    14.48375  -14.21546   -6.18318
      H1    15.33334  -14.30428   -6.57657
       H    14.83081   -8.05402   -6.12023
       O    15.59802   -8.00795   -6.73025
      H1    15.86095   -7.10423   -7.00406
       H     9.27260   -8.01892   -8.85436
       O     8.49442   -7.48893   -8.82051
      H1     8.45199   -6.94994   -9.57348
       H    13.56798  -13.42126   -7.52315
       O    13.39351  -13.00876   -8.44030
      H1    14.09235  -13.30408   -9.06629
       H    13.58618   -6.06596   -9.05630
       O    14.07139   -5.28047   -9.00796
      H1    13.48005   -4.74683   -8.38083
       H    13.47615  -12.68817   -3.18642
       O    14.18114  -12.63558   -3.81479
      H1    14.68633  -11.88017   -3.49313
       H    10.56162  -11.63243  -11.23960
       O    10.60202  -11.17016  -12.08242
      H1    11.28789  -11.56745  -12.62563
       H    15.73608   -9.75284  -11.88076
       O    15.59166   -8.86265  -11.50535
      H1    15.51055   -9.04116  -10.51271
       H    13.00833   -7.35366  -13.07664
       O    12.35596   -7.88733  -13.63543
      H1    12.52233   -8.82645  -13.51295
       H    19.14480   -7.75580   -9.88503
       O    18.16145   -7.85539   -9.93939
      H1    18.00119   -8.37009  -10.75316
       H    14.21912   -6.32318  -11.68042
       O    13.34511   -5.99803  -12.07456
      H1    12.67379   -6.04376  -11.38754
       H    16.94784  -11.41445   -9.36785
       O    16.56523  -12.29589   -9.22921
      H1    16.04541  -12.50235  -10.02450
       H    16.80825   -8.99333   -6.09447
       O    17.44977   -9.70718   -5.88885
      H1    18.08955   -9.31192   -5.26622
       H    11.53049   -8.50678   -8.00418
       O    10.61821   -8.81384   -7.75920
      H1    10.63623   -9.23299   -6.83778
       H    11.00092   -5.49678   -5.00769
       O    11.33796   -5.83100   -5.81980
      H1    10.68728   -6.53231   -6.17384
       H    16.79924   -6.56207   -8.76942
       O    16.31947   -6.00163   -8.12449
      H1    15.52795   -5.71473   -8.59344
       H    16.84925  -12.66883  -12.97585
       O    16.60365  -11.70225  -12.94236
      H1    15.84362  -11.62350  -13.50405
       H    11.82068   -8.57479   -4.42872
       O    11.11532   -8.26632   -3.80486
      H1    10.43929   -7.88454   -4.35048

