93
frame 0 | Written by MDAnalysis XYZWriter (release 2.4.3)
       H    -4.02219    4.28283   10.46519
       O    -3.48613    4.40580   11.25622
      H1    -3.87125    3.96582   11.98936
       H     5.43775    3.10416    9.83739
       O     4.99597    3.09760   10.71470
      H1     4.96550    2.18273   10.98221
       H    -1.65765   -0.78452   12.64407
       O    -2.39047   -0.77058   11.99468
      H1    -2.94201   -0.01047   12.15683
       H     2.17314    3.98133   10.05793
       O     2.86217    4.12563    9.44728
      H1     3.58911    3.77023    9.96608
       H    -1.21617    4.74224   15.00610
       O    -2.00581    4.58171   15.48630
      H1    -1.75986    4.04708   16.28167
       H    -0.72668    4.89694   11.11328
       O    -0.86561    4.00153   10.80737
      H1    -1.81888    3.82536   10.90535
       H     0.26249   -0.73342   13.96960
       O     0.40834    0.21791   13.85257
      H1     0.34435    0.43426   14.81782
       H     6.43362    3.14151   14.28758
       O     5.65514    2.65462   14.59479
      H1     5.64715    2.75855   15.52738
       H     0.52431    6.62760   10.13058
       O     0.44774    6.37043   11.03513
      H1     1.15435    6.86634   11.46490
       H    -1.00676    2.32212   17.16499
       O    -1.00234    3.08200   17.84775
      H1    -1.68717    2.79278   18.51509
       H     3.44402   -0.76238    9.96073
       O     3.87351   -1.58226   10.29133
      H1     4.77006   -1.40660   10.53454
       H    -0.84714   -2.95568   13.07179
       O    -0.94879   -2.18532   13.70847
      H1    -1.77066   -2.38137   14.14303
       H    -0.62742    8.40181   12.24982
       O    -1.45773    8.82207   12.41647
      H1    -1.46113    9.68425   12.02480
       H     5.47215    6.21616   15.28256
       O     5.90495    5.79640   14.52049
      H1     5.24011    5.67122   13.84064
       H     3.29543    0.08551   15.20372
       O     2.75476   -0.04646   16.00127
      H1     3.22149    0.22276   16.78020
       H     1.30436    0.88404   16.23801
       O     0.34233    1.13291   16.31898
      H1     0.10089    0.46265   16.97911
       H    -0.78920   -1.09524   10.76987
       O     0.07039   -0.92441   10.28215
      H1     0.28017   -1.69937    9.73875
       H     1.39754    5.06475   14.31783
       O     2.05487    5.69707   14.68683
      H1     1.75546    5.85367   15.56812
       H     1.23946    6.20602   17.99805
       O     2.09783    5.88648   17.69102
      H1     1.88943    4.95538   17.96505
       H     0.93390    3.12370   18.32889
       O     1.78525    3.39721   18.62187
      H1     2.34479    2.69631   18.27028
       H     4.32349    4.33512   12.01170
       O     4.04651    5.08281   12.55584
      H1     3.52189    4.74412   13.30870
       H    -0.88043    3.51047    9.09709
       O    -0.94226    3.37467    8.11707
      H1    -0.22786    3.79477    7.70665
       H     6.20676   -1.18170   11.44822
       O     6.02213   -0.29414   11.69760
      H1     5.19223   -0.14870   12.23174
       H     4.25532    6.80059   11.91379
       O     4.43126    7.65224   11.39921
      H1     5.39366    7.65640   11.28428
       H     1.58232    0.44129    8.67163
       O     2.52155    0.16787    8.66420
      H1     3.00637    0.78493    8.04886
       H     1.54370    0.80871   12.41626
       O     2.23747    1.31020   11.96823
      H1     2.26750    0.88172   11.14571
       H     3.40244    5.77226    8.98760
       O     3.77688    6.69505    8.93331
      H1     3.98455    6.91224    9.86211
       H    -3.39434    3.80233   14.68221
       O    -4.29324    3.51459   14.33168
      H1    -4.59856    2.83876   14.99745
       H     1.65666    7.18548   13.88268
       O     1.14294    7.92703   13.43867
      H1     0.50707    8.25776   14.09188
       H     4.58052    1.46161   14.11782
       O     4.22554    0.63292   13.66334
      H1     3.46639    0.83807   13.07218
       H     0.07054    3.85753   12.33453
       O     0.59970    3.68997   13.11325
      H1     1.19798    3.00620   12.81893

