93
frame 7 | Written by MDAnalysis XYZWriter (release 2.4.3)
       H    -7.39412   -5.30075   18.06230
       O    -6.72282   -5.42438   18.75101
      H1    -5.81569   -5.12990   18.53695
       H     1.37545   -6.84586   14.63005
       O     1.80898   -6.59603   15.46966
      H1     2.74059   -6.60338   15.24926
       H    -4.26759   -5.53575   12.79027
       O    -4.24950   -5.17457   11.88616
      H1    -4.68791   -5.79736   11.27465
       H    -2.48299  -11.59364   18.57335
       O    -2.82237  -10.72798   18.31708
      H1    -2.11624  -10.36959   17.72935
       H    -0.22351   -7.70643   13.14938
       O     0.64756   -7.39238   13.15477
      H1     0.92220   -7.24009   12.26896
       H    -1.15526  -13.80180   19.84703
       O    -1.36377  -12.84643   19.54730
      H1    -0.68298  -12.50197   18.88210
       H    -2.78124   -8.69183   13.21593
       O    -1.89668   -8.28452   12.93391
      H1    -2.12063   -7.89880   11.97809
       H    -7.24584   -7.68344   15.33274
       O    -7.38542   -7.12485   14.54962
      H1    -8.05559   -7.62362   14.02203
       H    -1.58719  -11.78213   14.75963
       O    -2.00032  -10.91302   14.74861
      H1    -1.30749  -10.39618   15.19847
       H    -0.43392   -3.54227   14.29507
       O    -1.36729   -3.85567   14.06428
      H1    -1.93017   -3.06144   13.96694
       H    -4.85734  -10.75354   16.60888
       O    -4.67594  -10.35244   15.75690
      H1    -3.82536  -10.68193   15.45080
       H    -1.94204   -7.02045   17.67791
       O    -2.11635   -7.87635   18.08922
      H1    -1.64594   -7.77139   18.89691
       H     0.19394  -10.19779   17.00836
       O    -0.17474   -9.37624   16.66005
      H1    -0.53137   -8.77927   17.35340
       H    -6.80216   -7.21462   19.39195
       O    -6.58407   -8.14665   19.18818
      H1    -6.85443   -8.28973   18.28275
       H    -1.68515   -4.25214   10.83696
       O    -0.88804   -4.57968   11.23213
      H1    -1.13198   -4.68693   12.15143
       H    -1.44673   -4.99420   15.71306
       O    -1.33395   -5.83390   16.20633
      H1    -0.79816   -6.35135   15.60663
       H    -0.08518   -9.60794   12.39785
       O     0.48862  -10.17529   11.80818
      H1     1.45697   -9.99757   12.07118
       H    -4.56166   -1.09511   19.18134
       O    -4.82368   -1.71436   19.88356
      H1    -4.76333   -2.59993   19.42603
       H     3.46186   -9.43960   19.63698
       O     2.50924   -9.44353   19.53093
      H1     2.32935   -9.11768   18.68894
       H    -6.26636   -9.44189   16.25828
       O    -7.00007   -8.88559   16.57425
      H1    -7.82467   -9.28135   16.27928
       H    -5.35837   -8.97251   12.65419
       O    -4.67929   -8.31368   12.45999
      H1    -4.65925   -7.71980   13.17560
       H     2.11915   -3.31598   14.71089
       O     1.29999   -3.78402   14.82688
      H1     1.45638   -4.72352   14.97071
       H    -1.72438   -3.95836   20.07240
       O    -1.78721   -3.75425   19.13143
      H1    -1.68327   -2.82122   19.09815
       H    -0.29079   -4.75974   18.80865
       O     0.42598   -5.41436   18.70133
      H1     0.28773   -5.85665   17.83149
       H    -5.36476   -2.07593   15.33491
       O    -5.27062   -2.25335   16.29383
      H1    -4.57889   -1.59282   16.55140
       H    -5.60640   -7.33702   17.93361
       O    -4.95703   -7.04575   17.22946
      H1    -4.28737   -7.72924   17.30537
       H    -3.52130   -4.16479   18.25992
       O    -4.41028   -3.86161   18.27077
      H1    -4.59802   -3.45883   17.38239
       H    -5.53986   -6.07148   14.13528
       O    -4.62457   -6.39253   14.21924
      H1    -4.32197   -6.22949   15.09122
       H     2.33586   -4.32398   17.97346
       O     2.47794   -3.76871   17.20438
      H1     1.80143   -3.82597   16.54495
       H     2.36827   -8.03166   16.26205
       O     2.93773   -8.56990   16.90259
      H1     3.34608   -7.82568   17.44199
       H     1.35134  -12.25503   17.37173
       O     0.61826  -11.89737   17.96161
      H1     0.99702  -11.89622   18.85561

