93
frame 7 | Written by MDAnalysis XYZWriter (release 2.4.3)
       H     6.38715   -5.74717  -13.33392
       O     7.06796   -6.14598  -12.74949
      H1     7.24211   -5.65549  -11.97129
       H     9.55941   -4.42895  -15.59991
       O     9.10230   -3.74014  -16.01615
      H1     8.44641   -3.46460  -15.33349
       H     3.56892   -4.82522  -10.93477
       O     3.07028   -5.22506  -11.69614
      H1     2.28615   -5.60182  -11.18664
       H    12.54285   -1.62950   -9.16042
       O    11.74124   -1.62987   -8.54387
      H1    10.95200   -1.37703   -9.04714
       H    10.79742   -0.73026  -17.64571
       O    11.47523   -0.29063  -17.13135
      H1    11.09349   -0.56543  -16.30231
       H     4.76086   -3.25499   -9.66582
       O     3.87003   -3.62894   -9.51536
      H1     3.26511   -2.93371   -9.20683
       H     5.04201    0.34617   -8.94900
       O     5.45303    0.55183   -9.79010
      H1     4.76011    0.99849  -10.28309
       H     7.03930   -5.24659   -8.49438
       O     6.25729   -5.32155   -7.95855
      H1     5.82920   -4.49441   -8.05699
       H     4.54168    2.05702  -14.18159
       O     3.98791    1.28776  -14.09265
      H1     4.53885    0.56222  -14.47277
       H    11.22860   -4.50157   -9.22630
       O    10.67871   -4.51585  -10.01970
      H1    11.11897   -3.95864  -10.60157
       H    10.61041    1.33232  -16.65768
       O    10.10852    2.09014  -16.40294
      H1     9.64572    1.75096  -15.63490
       H    11.65539   -1.99589  -11.78712
       O    11.77408   -2.94316  -12.07136
      H1    12.71056   -2.97136  -12.17253
       H     6.62400   -3.22540  -14.16933
       O     7.38841   -2.66864  -14.35857
      H1     6.99605   -1.92936  -14.78230
       H     6.80752   -2.43770   -9.13653
       O     6.40349   -2.92848   -9.89488
      H1     6.57909   -2.33935  -10.67271
       H     2.84746   -2.02107  -11.81559
       O     3.33617   -2.64180  -12.38923
      H1     3.00043   -3.53539  -12.22128
       H     8.61267    2.23794  -10.53323
       O     9.07856    2.08129  -11.44412
      H1     9.41973    2.93509  -11.74828
       H     6.91395    0.22449  -14.67104
       O     6.18623   -0.07213  -15.20692
      H1     5.85667    0.65218  -15.72541
       H     3.14893    1.86447  -12.56294
       O     2.90825    1.80212  -11.60489
      H1     2.94938    2.74330  -11.26748
       H     6.54169    2.02968   -9.27345
       O     7.26684    2.67336   -9.25398
      H1     6.91143    3.48936   -8.90018
       H     9.06155   -0.08637  -14.41943
       O     8.69806    0.74979  -14.25128
      H1     8.92710    1.00421  -13.31400
       H     8.53866   -0.94818   -8.75412
       O     9.12044   -0.59842   -9.45739
      H1     8.60747   -0.88521  -10.22503
       H     7.55084   -0.84442   -7.21365
       O     7.66206   -1.71413   -7.59846
      H1     8.37363   -2.09182   -7.05047
       H    10.69654   -1.57489  -13.79026
       O    10.39106   -1.31203  -14.65908
      H1    10.10810   -2.20215  -15.02569
       H     4.42462   -3.68741  -13.81686
       O     5.17730   -4.30292  -14.03298
      H1     4.91692   -4.83396  -14.81259
       H    10.18138   -6.54371  -13.92148
       O     9.46878   -6.17070  -14.51110
      H1     8.62325   -6.28150  -14.03456
       H    11.39472    0.61863  -12.18555
       O    11.04971   -0.08461  -11.58709
      H1    10.40342    0.42229  -11.08320
       H     6.72044   -0.37301  -11.81457
       O     7.28167   -1.15353  -11.71320
      H1     7.23138   -1.67915  -12.47016
       H     2.35315   -1.02850  -15.09245
       O     3.02942   -1.70180  -14.87800
      H1     2.92063   -1.74210  -13.88551
       H     8.91728   -4.95126  -10.27137
       O     7.94776   -5.25195  -10.26143
      H1     7.38898   -4.45737  -10.14148
       H     8.13395   -4.42477  -17.31900
       O     7.55559   -4.94162  -17.89089
      H1     7.05183   -4.27153  -18.42582
       H     3.80614   -1.52038  -16.72448
       O     3.84704   -1.34675  -17.65499
      H1     4.02006   -0.39781  -17.82479

