93
frame 0 | Written by MDAnalysis XYZWriter (release 2.4.3)
       H    11.68455    2.60044  -17.69130
       O    12.26720    2.09119  -18.23588
      H1    12.54434    1.31136  -17.69110
       H     6.34560   -4.96615  -16.35411
       O     6.77742   -4.77741  -15.49016
      H1     6.13817   -4.40536  -14.85856
       H    15.67551   -2.15429  -15.07427
       O    16.02542   -1.78536  -14.30695
      H1    16.95650   -1.76890  -14.41359
       H    10.58294   -6.98257  -15.89416
       O    10.47452   -7.33262  -16.79678
      H1    10.41920   -6.55083  -17.35450
       H    13.76522   -0.67897  -17.06172
       O    13.66619    0.20783  -16.70774
      H1    14.58165    0.50820  -16.64150
       H     5.54253   -0.78345  -18.59794
       O     4.69812   -0.91095  -19.12273
      H1     4.03956   -0.47333  -18.54106
       H    10.96143   -1.65812  -17.70223
       O    11.63546   -2.41285  -17.75681
      H1    11.21399   -3.28168  -18.02169
       H     7.97384   -1.72290  -15.88453
       O     7.37840   -1.18235  -15.36162
      H1     7.65056   -1.42006  -14.47594
       H     5.57283   -5.79211  -18.57227
       O     6.39857   -5.77481  -18.06916
      H1     7.05590   -5.29781  -18.56623
       H    11.84093   -3.80757  -14.48888
       O    12.58697   -4.39888  -14.23327
      H1    12.21281   -5.29520  -14.40163
       H     5.61341    1.31828  -13.51737
       O     5.40906    0.75792  -14.28002
      H1     6.11992    0.10636  -14.30709
       H    11.25138   -2.63836  -11.48894
       O    11.37005   -3.58100  -11.77080
      H1    12.02213   -3.70408  -12.41117
       H    15.83989   -2.37958  -17.31148
       O    15.03704   -2.31987  -16.73525
      H1    14.61131   -3.18436  -16.86030
       H    14.26424   -6.20127  -18.64578
       O    14.63432   -6.72005  -19.40433
      H1    14.97854   -6.00054  -19.95630
       H    12.62557   -0.07910  -13.75545
       O    12.02511    0.36525  -14.35828
      H1    12.59106    0.45924  -15.14985
       H    10.23776   -2.21432  -13.59312
       O    10.83523   -2.05771  -14.30966
      H1    11.12003   -1.10352  -14.34706
       H     8.12222    0.60606  -16.11411
       O     8.63294    1.18841  -16.68243
      H1     7.99096    1.78769  -17.08056
       H    13.87734    3.43333  -17.94094
       O    14.48026    4.16035  -17.88323
      H1    14.43946    4.58589  -18.75493
       H     4.22218   -1.22911  -16.49562
       O     4.80459   -2.03246  -16.37049
      H1     5.69168   -1.66859  -16.11423
       H    10.22214    0.02151  -19.09852
       O     9.77970   -0.46317  -18.38130
      H1     9.38385    0.15184  -17.77410
       H     7.94699   -1.69995  -12.17012
       O     8.62043   -1.25442  -12.76236
      H1     8.80243   -0.45657  -12.26414
       H    10.01603    2.50498  -16.23620
       O    10.68068    3.20912  -16.02655
      H1    10.44184    3.92729  -16.64112
       H     9.76707   -3.17436  -15.85012
       O     9.02355   -3.45829  -16.44144
      H1     8.42354   -4.02220  -15.82092
       H     9.94657   -4.81391  -18.81417
       O    10.91453   -4.84356  -18.77592
      H1    11.29071   -4.68760  -19.64335
       H     7.65562    3.64699  -17.57596
       O     7.47551    2.99564  -18.24928
      H1     6.52289    2.83709  -18.20120
       H    11.42095   -7.67175  -13.88980
       O    11.09100   -6.85169  -14.32770
      H1    10.29603   -6.56936  -13.84121
       H    14.89447   -0.61382  -13.41683
       O    14.20970   -0.35278  -12.77267
      H1    14.40033    0.58002  -12.49489
       H    11.62075    2.14258  -13.42894
       O    11.80225    2.82071  -12.76303
      H1    11.15202    3.49653  -12.97111
       H    13.12173   -3.83781  -17.26965
       O    13.70470   -4.55109  -16.94898
      H1    13.57312   -4.58166  -15.99667
       H    15.42247    2.77912  -17.72768
       O    15.91162    1.91659  -17.74091
      H1    15.63214    1.35658  -18.45002
       H     8.59693   -3.65896  -18.11552
       O     8.27985   -4.03755  -18.96397
      H1     7.54194   -3.55408  -19.37060

