93
frame 7 | Written by MDAnalysis XYZWriter (release 2.4.3)
       H   -17.80098   11.76456   -8.78236
       O   -18.45086   11.06579   -8.67447
      H1   -19.29956   11.46619   -8.73658
       H   -13.16753    2.66713   -6.87932
       O   -12.85839    2.21823   -6.04189
      H1   -11.98063    1.90254   -6.39983
       H   -14.38863   11.64673  -12.14339
       O   -14.51940   11.13558  -11.30259
      H1   -15.38547   10.82008  -11.26258
       H   -17.23185    4.25241  -10.01826
       O   -17.16601    3.31148  -10.31282
      H1   -18.00190    2.92988  -10.01243
       H   -14.95083    0.88529  -10.97512
       O   -14.86213    1.84399  -11.04383
      H1   -15.53859    2.41517  -10.55882
       H   -14.50435    8.60492   -9.66622
       O   -13.78802    8.89866  -10.19628
      H1   -14.04497    9.78985  -10.53545
       H   -12.78408   11.20102   -5.43653
       O   -12.80491   10.60540   -6.17073
      H1   -13.61659   10.81860   -6.69663
       H   -10.54373    9.50284   -9.46800
       O   -10.87368    8.65782   -9.93404
      H1   -11.81086    8.91090  -10.14944
       H   -12.33976    5.13832  -11.19736
       O   -12.09457    4.56346  -11.92119
      H1   -12.95446    4.28160  -12.31828
       H   -17.84497   10.50453  -13.73693
       O   -17.18234   10.01462  -13.22253
      H1   -17.22780   10.14017  -12.21087
       H   -16.88370    4.46997   -5.80559
       O   -16.23676    3.80001   -5.64800
      H1   -15.79259    4.13235   -4.83926
       H   -16.50199    6.32987  -12.95462
       O   -15.94836    6.05318  -12.17769
      H1   -15.11457    6.62591  -12.29840
       H   -18.26438    9.28531   -5.25128
       O   -17.94662    9.85064   -4.53591
      H1   -18.16024    9.30736   -3.76990
       H   -14.93963    7.17932   -8.13104
       O   -15.69309    7.63928   -8.45206
      H1   -16.26715    6.94586   -8.85100
       H   -13.30896    6.80071   -6.67557
       O   -13.62946    6.23015   -7.42004
      H1   -12.93868    6.36344   -8.10146
       H   -15.14510   10.74094   -3.96874
       O   -15.22487    9.84149   -4.20861
      H1   -16.18797    9.71910   -4.41351
       H   -13.85840    3.24883   -8.83875
       O   -14.29768    3.60814   -8.02643
      H1   -13.87507    4.47478   -7.92450
       H   -11.65763    6.99381   -9.51595
       O   -12.01485    6.09057   -9.55645
      H1   -11.43722    5.62433   -8.91097
       H   -18.70125    7.80947   -7.21269
       O   -18.01728    7.76470   -6.54080
      H1   -17.19677    8.01787   -6.97961
       H   -16.31024    2.41141   -6.70696
       O   -16.67387    1.64091   -7.20753
      H1   -15.86696    1.20390   -7.56184
       H   -17.61421    3.41738  -12.19295
       O   -17.94570    3.16333  -13.08447
      H1   -17.57141    2.19481  -13.08975
       H   -18.61595    5.53666   -1.95280
       O   -17.68965    5.59837   -2.27337
      H1   -17.77257    5.53287   -3.23714
       H   -17.16801    6.20332  -11.00078
       O   -17.45542    6.27562  -10.02810
      H1   -18.43873    6.12298   -9.96756
       H   -15.43893    4.40950  -12.65483
       O   -14.69897    3.84643  -12.89269
      H1   -14.83986    2.96824  -12.45240
       H   -15.56711   11.89603   -5.77670
       O   -15.65004   12.56909   -5.12435
      H1   -14.91568   13.19532   -5.27768
       H   -18.29383    6.31627   -5.80124
       O   -18.37358    5.40970   -5.43298
      H1   -19.20176    5.05139   -5.86846
       H   -17.37796   10.08727   -9.93435
       O   -16.88139    9.58082  -10.50520
      H1   -17.22556    8.68799  -10.33664
       H   -13.90637    8.37021  -11.89436
       O   -14.04267    8.04522  -12.77809
      H1   -14.53012    8.69026  -13.28659
       H   -18.75914    6.86796  -13.37054
       O   -18.13094    7.37892  -13.91222
      H1   -18.11776    8.26451  -13.57576
       H   -13.21536    8.67087   -5.78943
       O   -13.17421    7.78303   -5.34950
      H1   -13.62382    7.83841   -4.47935
       H   -15.34691   10.17788   -7.77536
       O   -15.04240   11.04228   -7.52785
      H1   -15.05057   11.64419   -8.31931

