93
frame 6 | Written by MDAnalysis XYZWriter (release 2.4.3)
       H    16.91880   -1.69760   12.23030
       O    16.79679   -2.22382   13.06648
      H1    16.85086   -1.55373   13.71101
       H    11.77699   -5.79963   10.02372
       O    10.95431   -5.77837   10.53829
      H1    10.63234   -4.87438   10.64859
       H     7.40678   -2.25080   11.15496
       O     7.18643   -1.56893   10.49871
      H1     6.54676   -1.97490    9.86251
       H    13.57818   -6.13211   10.27213
       O    13.22567   -6.10719    9.36386
      H1    13.44253   -5.29163    8.88954
       H    11.31968   -2.55688    6.39665
       O    11.52042   -2.35127    7.38616
      H1    12.25967   -1.78194    7.35247
       H    10.92482    2.50900   14.03432
       O    11.46304    1.69237   14.13326
      H1    12.14722    1.69044   13.49387
       H    14.43400    1.43753   12.99857
       O    13.69814    1.83209   12.54362
      H1    13.17386    1.16961   12.07602
       H    14.56802   -1.28669    8.17116
       O    15.05306   -1.57552    8.96772
      H1    15.65363   -2.26696    8.55941
       H    11.09586   -6.18925   14.51417
       O    11.36504   -6.96690   14.01577
      H1    10.50977   -7.38400   13.80002
       H    13.25487   -1.77425   13.13417
       O    12.92437   -0.89802   13.41255
      H1    12.06257   -0.92197   12.99746
       H    15.29094    0.30566   15.17693
       O    14.51293    0.74171   14.88559
      H1    14.08560    0.12963   14.28103
       H    13.42170    0.27818    7.50749
       O    13.62303   -0.45439    6.87940
      H1    14.33657   -0.13405    6.31970
       H    16.67301   -4.40243    8.24313
       O    17.18715   -3.62706    8.50113
      H1    17.73360   -3.74955    9.30381
       H    16.30419   -0.95345   10.29459
       O    17.16288   -0.91586   10.67443
      H1    17.53952   -1.47633   10.01536
       H     9.93687   -5.20354   16.75200
       O    10.16044   -4.81021   15.90872
      H1    10.99851   -4.39235   15.91648
       H    13.35383   -3.47354    7.68612
       O    13.92498   -4.14195    7.27820
      H1    13.97531   -4.00199    6.32191
       H     9.03554    0.44904   13.65557
       O     8.96980    0.15177   12.73361
      H1     8.07008    0.31658   12.50570
       H     8.62482    0.41800    8.57644
       O     8.51649    0.90210    9.39000
      H1     8.26984    0.17430    9.91452
       H    14.05520   -6.74804   12.66387
       O    14.23614   -6.16663   11.87166
      H1    14.03937   -5.26321   12.23307
       H    11.07545   -1.72084   16.44957
       O    12.06987   -1.63887   16.37827
      H1    12.25567   -0.79867   16.00919
       H     7.67861   -3.76978   12.35798
       O     7.16795   -3.05834   12.83513
      H1     7.21128   -3.41794   13.72602
       H     9.81748   -1.23865    7.21530
       O     9.18206   -0.53675    6.89254
      H1     9.11500   -0.53861    5.91912
       H    11.62569   -0.52264   10.58755
       O    11.50078    0.37419   10.80145
      H1    10.54896    0.54273   10.77290
       H    12.81402   -3.13381   16.17019
       O    13.09546   -4.04699   15.92750
      H1    13.49858   -4.50012   16.72761
       H    10.96465   -4.16352    7.98325
       O    10.53399   -5.08097    7.97807
      H1    10.55190   -5.36505    8.89365
       H    17.18995   -6.97484   11.10937
       O    16.86346   -6.35135   11.80510
      H1    15.89927   -6.41919   11.73375
       H    13.73022   -3.56466   14.08994
       O    13.98715   -3.46252   13.16904
      H1    14.87945   -3.10363   13.16175
       H    11.29399   -2.66190   10.57356
       O    12.11181   -2.21702   10.49362
      H1    12.73458   -2.56944   11.15311
       H    12.75745    2.12293    8.18335
       O    13.15271    1.44343    8.74232
      H1    12.49687    1.16955    9.44490
       H     9.02396   -3.03607   10.04608
       O     9.60608   -3.35623   10.73109
      H1     9.65460   -2.80925   11.57071
       H    10.95165   -2.21051   13.96211
       O    10.42854   -2.21572   13.14160
      H1     9.76211   -1.51480   13.24304

