93
frame 8 | Written by MDAnalysis XYZWriter (release 2.4.3)
       H   -15.83539   -6.13481    9.72007
       O   -16.05806   -6.96555    9.22368
      H1   -16.84753   -6.63484    8.75157
       H   -13.77650  -11.90052    8.85963
       O   -14.22999  -12.53590    8.28598
      H1   -14.70768  -12.01203    7.62517
       H   -12.44302  -12.40801   14.07312
       O   -12.56765  -13.36097   13.86521
      H1   -13.47354  -13.51781   13.53348
       H   -11.63969  -10.11037   16.89779
       O   -12.20910  -10.25410   17.63906
      H1   -12.55524   -9.35763   17.87973
       H    -6.78996   -7.00406    8.75048
       O    -7.65357   -7.42617    8.61489
      H1    -7.70778   -8.34465    8.95584
       H   -14.82985   -9.20784   15.43615
       O   -15.15150   -9.52344   16.31568
      H1   -14.39432   -9.65149   16.83328
       H   -12.85373   -7.80574    8.73918
       O   -13.62364   -8.38686    8.81746
      H1   -14.28362   -7.85888    9.21865
       H    -9.70548   -8.48056   16.05967
       O    -9.91871   -9.38973   15.97221
      H1   -10.17604   -9.41780   15.07030
       H   -17.03252   -8.05767   10.46014
       O   -17.69450   -8.32319   11.08298
      H1   -18.46106   -7.88066   10.71517
       H    -9.07792   -9.94292   10.29085
       O    -8.38677   -9.99224    9.61203
      H1    -8.36304  -10.89192    9.32056
       H    -8.60330  -12.97494   12.08200
       O    -7.86125  -12.92789   12.69533
      H1    -7.29733  -12.18121   12.38796
       H   -11.60999  -10.20654   11.04868
       O   -10.69035  -10.32770   11.17642
      H1   -10.55033  -11.25534   11.41517
       H   -10.64421  -14.15234    7.44032
       O   -10.40540  -14.66050    8.20686
      H1   -11.24427  -14.87953    8.64311
       H   -12.16529   -9.88299   14.02997
       O   -11.73592  -10.71430   13.71253
      H1   -11.54458  -10.47676   12.81767
       H   -15.76891  -13.22550    8.57267
       O   -16.64696  -13.61020    8.62196
      H1   -16.68567  -14.06491    9.48777
       H    -7.31236   -7.36113   15.09224
       O    -7.44355   -6.43741   14.79812
      H1    -8.20456   -6.53117   14.22818
       H   -15.31870  -12.36446   12.92801
       O   -15.32779  -11.77111   12.16276
      H1   -16.25509  -11.64638   11.90231
       H   -12.46368  -11.10845    5.64223
       O   -13.00539  -10.46460    5.16007
      H1   -12.37761   -9.71370    5.01060
       H   -12.11478   -7.74346   10.82650
       O   -12.64142   -7.88746   11.61094
      H1   -12.85379   -7.06390   12.01386
       H   -14.13382  -11.06656   10.75560
       O   -13.29694  -10.88023   10.30259
      H1   -13.41906   -9.99178    9.94159
       H   -11.09776  -14.80629   14.38768
       O   -11.20816  -15.70454   14.41462
      H1   -10.34461  -16.09167   14.63089
       H    -9.18541   -5.35497   12.20978
       O    -9.95379   -5.84476   12.46696
      H1   -10.48814   -5.14086   12.87985
       H   -10.76616   -6.58857    6.64151
       O   -11.70798   -6.31592    6.74715
      H1   -12.24639   -7.00662    6.45198
       H   -11.03484  -13.95737   11.11131
       O   -10.66107  -13.29244   11.72353
      H1   -11.30945  -13.38108   12.46875
       H   -11.53789   -6.14272    8.52166
       O   -11.39187   -6.59305    9.40475
      H1   -11.10519   -5.88312    9.95367
       H   -10.04440   -7.56502   12.85410
       O    -9.79751   -8.43905   13.21971
      H1   -10.00726   -9.10455   12.58766
       H   -12.22852  -12.64380    7.22024
       O   -11.68158  -12.60908    6.42971
      H1   -12.05439  -13.18598    5.79101
       H    -7.56233  -12.93766    7.90380
       O    -7.45471  -11.98081    7.74366
      H1    -6.55563  -11.87167    7.37276
       H    -8.60805   -7.40269    7.28104
       O    -9.05600   -7.11935    6.41309
      H1    -9.44986   -7.84942    5.92452
       H   -13.08335   -6.06901   14.23476
       O   -13.07240   -5.56881   13.44750
      H1   -14.05445   -5.37447   13.40538
       H   -14.46972   -9.87125   13.05619
       O   -14.46728   -8.90873   13.24588
      H1   -13.86618   -8.57988   12.53919

