93
frame 8 | Written by MDAnalysis XYZWriter (release 2.4.3)
       H    -8.17699   19.44248   -6.94791
       O    -8.30261   19.54813   -5.99306
      H1    -9.21048   19.82841   -5.88550
       H    -3.94875   14.38405  -10.16935
       O    -4.38045   13.52335   -9.99745
      H1    -4.70096   13.20023  -10.85337
       H    -3.25382   16.95241  -13.17035
       O    -3.48012   17.86793  -13.54804
      H1    -2.80613   18.04170  -14.24911
       H    -1.22537   19.18715   -5.38890
       O    -0.31596   18.90591   -5.15957
      H1     0.09328   18.55591   -5.95131
       H    -9.71161   17.46707   -9.84992
       O   -10.19511   17.62984  -10.71701
      H1    -9.55986   17.60014  -11.43573
       H    -1.45426   18.87288  -10.54259
       O    -1.42334   18.66855   -9.58399
      H1    -2.19205   19.13340   -9.28435
       H    -1.25603   15.60561   -5.27694
       O    -1.24002   16.17126   -4.47770
      H1    -0.62936   16.89427   -4.65719
       H    -5.71342   18.30614   -2.63220
       O    -6.42495   18.94161   -2.56505
      H1    -6.09322   19.81275   -2.59764
       H    -6.20197   14.87727  -10.92526
       O    -6.75274   15.61358  -10.77015
      H1    -6.29879   16.05206  -10.03385
       H    -8.83532   18.60072  -13.45842
       O    -8.33247   17.90554  -12.99435
      H1    -7.77047   17.41510  -13.62596
       H    -9.02765   16.60716   -7.37401
       O    -9.76819   16.77006   -7.99809
      H1   -10.54234   17.04570   -7.41332
       H    -5.85187   11.17819   -8.17335
       O    -5.26285   11.84723   -7.70618
      H1    -4.90771   12.35738   -8.49195
       H    -5.40751   11.11602  -12.71623
       O    -5.34989   11.92804  -12.17827
      H1    -5.69036   12.54562  -12.83727
       H    -7.83939   17.77516   -5.92144
       O    -7.77131   16.84007   -5.80203
      H1    -6.87943   16.59595   -5.90309
       H    -5.25632   17.29858  -13.86314
       O    -6.04794   16.91956  -14.31328
      H1    -6.18455   17.26316  -15.18641
       H    -2.89069   16.54211   -4.22361
       O    -3.82074   16.85554   -4.07436
      H1    -3.90791   16.99075   -3.11416
       H    -5.16101   16.36356   -7.88794
       O    -5.35001   16.93504   -8.68178
      H1    -4.92373   17.79069   -8.35890
       H    -8.02827   17.27429   -3.75772
       O    -8.68312   17.32144   -3.02047
      H1    -8.17773   17.87994   -2.38121
       H    -6.25671   14.49043   -6.02411
       O    -5.59011   15.16693   -6.31310
      H1    -4.86522   15.03819   -5.63547
       H    -9.36516   13.52446   -9.32441
       O    -9.61146   12.97245   -8.52850
      H1   -10.26422   13.57732   -8.13579
       H    -7.81162   13.38596  -13.22756
       O    -6.94074   13.76453  -13.42164
      H1    -6.95355   14.72386  -13.30123
       H    -6.55330   12.69947   -6.87621
       O    -7.36746   13.05562   -6.51102
      H1    -8.01498   12.98645   -7.25303
       H    -3.37915   19.74478   -4.70265
       O    -3.03896   19.32723   -5.52313
      H1    -3.20904   18.38213   -5.38236
       H    -2.09857   14.03694   -5.99881
       O    -1.79932   14.61024   -6.69887
      H1    -0.85559   14.65963   -6.74840
       H    -2.75583   14.68561  -12.57889
       O    -3.23831   15.46120  -12.17280
      H1    -2.66089   15.80735  -11.46896
       H   -11.72596   14.86524  -11.80694
       O   -11.73460   15.33423  -10.96127
      H1   -11.18513   16.08505  -11.16524
       H    -3.16172   12.71430   -4.10870
       O    -2.49526   12.97626   -4.71562
      H1    -1.69789   12.53691   -4.40443
       H    -2.86560   12.75797   -9.04976
       O    -1.99771   12.41733   -8.81645
      H1    -1.65042   13.28509   -8.51917
       H    -2.21370   15.70186   -8.55908
       O    -1.84962   15.91281   -9.43501
      H1    -1.74266   16.88559   -9.43495
       H   -10.00608   14.64380  -11.09684
       O    -9.23212   14.15592  -10.85823
      H1    -8.49364   14.85970  -10.92725
       H     0.92145   16.48246   -7.84284
       O     1.04479   17.44967   -7.86964
      H1     0.54858   17.68406   -8.70584

