93
frame 8 | Written by MDAnalysis XYZWriter (release 2.4.3)
       H   -16.28317   14.09055    2.69707
       O   -16.48071   13.27773    3.19352
      H1   -15.65329   12.87651    3.15313
       H   -17.05143   11.46253   -4.85585
       O   -17.69598   12.04180   -4.46653
      H1   -18.49796   11.56581   -4.52109
       H   -15.84431    5.52257   -2.76793
       O   -14.88272    5.50990   -2.64024
      H1   -14.55823    6.40717   -2.79273
       H   -19.34711    7.27240    1.81010
       O   -18.60239    6.77181    2.19817
      H1   -17.79699    7.03626    1.72995
       H   -13.32453    9.37323   -0.32638
       O   -12.66362    9.15717   -1.01469
      H1   -12.51239    8.25065   -0.78491
       H   -15.00336    8.36582   -3.45534
       O   -14.04960    8.15452   -3.36714
      H1   -13.73143    8.53914   -2.52449
       H   -13.75644   15.42097   -2.41017
       O   -14.55520   14.99947   -2.78859
      H1   -15.10500   15.75847   -2.94128
       H   -13.84017   14.37556   -4.63343
       O   -14.15163   14.01934   -5.46256
      H1   -13.46473   14.15789   -6.11306
       H   -15.23503   15.33227   -1.22670
       O   -15.51414   15.31773   -0.33441
      H1   -16.41084   15.53067   -0.38546
       H   -13.02485   13.22033    2.22005
       O   -13.86737   12.73373    2.29162
      H1   -14.03912   12.48438    1.33903
       H   -14.24755   13.11214   -2.43133
       O   -13.92535   12.35011   -1.95877
      H1   -14.63957   11.72114   -2.03067
       H   -19.95538    9.89439    2.26483
       O   -19.87987    9.79903    3.21180
      H1   -19.18646    9.11473    3.36640
       H   -19.00986    9.59847   -5.51986
       O   -19.56231   10.10872   -4.95113
      H1   -19.94362    9.41859   -4.40363
       H   -16.71691    9.56697   -4.00467
       O   -16.68026    8.73502   -3.53038
      H1   -17.38761    8.23636   -4.04618
       H   -18.64865    8.27699   -7.23930
       O   -17.91763    8.33725   -6.57922
      H1   -17.16300    8.68791   -7.08905
       H   -11.79800   11.46467   -3.84273
       O   -12.14025   11.66347   -4.71770
      H1   -13.09996   11.60069   -4.67294
       H   -14.62193   10.01937    1.44567
       O   -14.38856   10.41811    0.54916
      H1   -15.20082   10.50965    0.07058
       H   -18.36957    5.72469   -2.15573
       O   -17.48734    5.57628   -2.57399
      H1   -17.62968    5.48414   -3.56465
       H   -17.98944   12.30129    4.08120
       O   -18.62492   11.90690    4.67187
      H1   -18.89344   11.11082    4.14363
       H   -18.05311   14.10438   -1.84894
       O   -18.18261   13.17025   -2.00193
      H1   -18.12683   13.00916   -3.03414
       H   -11.00130   12.06091   -0.73005
       O   -11.74829   12.31471   -0.21552
      H1   -12.54052   12.47717   -0.77057
       H   -14.82747   11.05757   -6.22002
       O   -14.89839   11.29961   -5.30015
      H1   -14.63846   12.21318   -5.33784
       H   -13.47963    7.38260    1.87713
       O   -14.23482    7.99326    2.07952
      H1   -15.04250    7.57048    1.72957
       H   -17.87035    6.53717   -5.94587
       O   -18.05890    5.77228   -5.42655
      H1   -18.87266    5.33411   -5.73516
       H   -18.74055    8.70923   -0.59870
       O   -17.81246    8.70369   -0.82654
      H1   -17.62931    8.43693   -1.72029
       H    -9.86631   10.11087   -2.64011
       O   -10.54637   10.72804   -2.28059
      H1   -11.13158   10.08145   -1.84229
       H   -17.76740   16.35236   -2.16786
       O   -18.19691   15.86125   -1.42228
      H1   -18.39421   16.56993   -0.79991
       H   -17.00278   10.56956   -1.58355
       O   -16.33710   11.25822   -1.37900
      H1   -16.80635   12.09690   -1.48503
       H   -15.69094    6.14091    0.36875
       O   -16.19794    6.87088    0.76864
      H1   -16.53336    7.34422   -0.03700
       H   -12.30858    8.77788   -6.57137
       O   -12.57456    8.08789   -6.00221
      H1   -13.05741    8.38703   -5.20907
       H   -16.05354   14.41329   -5.93988
       O   -16.98721   14.40837   -6.00494
      H1   -17.25409   13.57840   -5.47917

