93
frame 9 | Written by MDAnalysis XYZWriter (release 2.4.3)
       H    -9.22387   14.14841   16.81703
       O    -8.73118   13.36847   17.02310
      H1    -9.02835   13.23933   17.96313
       H    -9.23078   11.06802   14.21853
       O    -9.52831   11.46350   14.99385
      H1    -8.80337   12.07055   15.27431
       H   -11.75080   13.83582   15.22175
       O   -11.89626   12.84829   15.11625
      H1   -11.06361   12.37778   15.31233
       H   -10.23208   19.69176   17.03602
       O    -9.99611   18.73865   17.14703
      H1    -9.59590   18.32800   16.33022
       H   -11.76787   15.15416   19.46448
       O   -12.68527   15.12768   19.17694
      H1   -13.03240   15.96824   19.52237
       H   -14.47865   12.95888   17.13376
       O   -14.43654   12.98985   16.18138
      H1   -13.50980   12.86767   15.97372
       H    -5.72035   15.71888   12.64480
       O    -6.03644   15.82020   13.55377
      H1    -6.68290   15.08362   13.69748
       H   -10.24347   16.13486   12.80175
       O    -9.86999   15.34176   12.42985
      H1   -10.62054   14.71267   12.40036
       H    -8.82925   17.89380   18.29486
       O    -8.41191   17.34368   19.01217
      H1    -7.76461   16.81801   18.53128
       H   -12.06943   18.32440   16.86043
       O   -12.66159   17.54092   16.91115
      H1   -12.49439   17.18015   17.77218
       H    -8.90990   14.79269   13.86760
       O    -8.25151   14.14203   14.19493
      H1    -8.43813   13.42232   13.64715
       H   -11.57818    9.37561   17.99301
       O   -12.40735    9.24460   18.49900
      H1   -12.88980    8.60834   17.89968
       H    -4.19902   13.45586   19.38402
       O    -4.15422   12.95457   18.54978
      H1    -3.93640   12.03837   18.88884
       H    -6.79530   10.39230   17.46376
       O    -7.07314    9.59310   17.97097
      H1    -6.84600    9.90164   18.88525
       H    -5.54510   12.52915   13.23109
       O    -6.25720   12.13590   12.70593
      H1    -5.99330   12.34672   11.78645
       H   -10.64551   16.23744   15.52721
       O   -11.34681   15.59766   15.56978
      H1   -12.05837   16.13774   15.97742
       H   -11.88555   12.76386   13.11629
       O   -11.83279   13.32569   12.32052
      H1   -11.74777   12.75100   11.56556
       H    -8.23113   17.52523   15.18495
       O    -9.18085   17.40204   14.97463
      H1    -9.49645   17.86159   14.16672
       H   -13.02988   11.25644   18.74561
       O   -13.50677   12.07229   18.87450
      H1   -12.94427   12.86554   18.90991
       H    -9.61902    8.22586   16.56309
       O    -9.32784    7.58646   15.93508
      H1    -9.91816    7.49065   15.17675
       H    -9.72494   10.63109   16.72643
       O    -9.82689   10.00040   17.45465
      H1    -8.94330    9.68040   17.76361
       H    -7.20201   15.12201   17.12177
       O    -6.70692   15.80956   17.56693
      H1    -6.42617   16.36977   16.82841
       H    -7.66025    9.53336   13.48064
       O    -8.14163   10.16577   12.97573
      H1    -7.45250   10.80699   12.87823
       H    -2.46255   10.70223   18.97118
       O    -3.33957   10.52275   19.35849
      H1    -3.47218    9.60442   18.99518
       H    -3.96704   13.43250   15.16959
       O    -4.46076   12.70513   14.84413
      H1    -5.08134   12.57859   15.58353
       H    -6.47548   17.22507   14.66661
       O    -6.52493   17.63388   15.55757
      H1    -6.11266   18.53853   15.54560
       H   -10.26721   12.10895   19.93872
       O    -9.68884   12.18228   19.18189
      H1    -9.84082   11.43827   18.60235
       H    -2.90303   16.09346   14.51780
       O    -3.56081   15.92726   15.19635
      H1    -4.36373   15.90757   14.65353
       H    -5.57846   12.46011   17.44615
       O    -6.26256   12.04625   16.87313
      H1    -7.00931   12.66461   16.87679
       H    -7.59057    7.62916   18.65301
       O    -8.19198    6.92554   18.40099
      H1    -8.43702    7.11383   17.48064
       H    -4.44005    9.28601   15.97813
       O    -4.40835    8.36833   16.11639
      H1    -3.47065    8.10255   16.28717

