93
frame 8 | Written by MDAnalysis XYZWriter (release 2.4.3)
       H    17.17268   -2.56767   12.86904
       O    16.98982   -2.73631   13.83305
      H1    17.11795   -1.91301   14.32166
       H    12.10407   -6.43965    9.20052
       O    11.19496   -6.49505    9.58906
      H1    11.08712   -5.71304   10.17895
       H    17.94213   -3.89016   11.19472
       O    18.12153   -2.92707   11.35755
      H1    18.80332   -2.80212   12.00192
       H     7.56493   -3.35124   12.34992
       O     7.56007   -3.41185   11.38593
      H1     6.97820   -4.18173   11.26545
       H    14.12583   -6.32840    9.54040
       O    13.80161   -6.71344    8.68713
      H1    13.85069   -6.01433    8.03264
       H     9.69056   -3.75892    5.05910
       O    10.59582   -3.34287    5.01677
      H1    11.05503   -3.86747    4.36380
       H    11.89085   -2.47164    6.62728
       O    11.85188   -2.25202    7.57898
      H1    12.60198   -1.59299    7.70377
       H    15.35252   -2.07397    9.75666
       O    15.35817   -2.13684   10.71772
      H1    16.18310   -2.65585   10.97210
       H    11.39209   -5.97505   14.44408
       O    11.54377   -6.43333   13.63349
      H1    10.87741   -7.11581   13.48174
       H    13.50567   -1.69488   13.24774
       O    13.39509   -0.73230   13.25842
      H1    13.67983   -0.57802   12.30661
       H    14.22130   -8.15479    7.78636
       O    14.15631   -9.04965    7.41561
      H1    14.03491   -9.73436    8.09025
       H     7.60942   -6.55881    8.30564
       O     8.14048   -5.80850    8.69230
      H1     9.06211   -5.92487    8.46125
       H    13.98827   -8.11180   15.21133
       O    14.12660   -7.84049   14.29315
      H1    13.76196   -6.98396   14.11720
       H    13.99408    0.15999    7.50448
       O    14.13195   -0.79375    7.57563
      H1    14.84117   -1.01417    6.95860
       H    15.72518   -4.72525    7.44195
       O    16.40458   -4.38139    8.06386
      H1    16.26625   -4.88848    8.85497
       H    16.40932   -0.67396   11.20163
       O    16.89831    0.13134   11.13878
      H1    17.77214   -0.11115   10.91624
       H    10.43386   -9.13753   10.88750
       O     9.76063   -8.47122   10.71654
      H1    10.16994   -7.75752   10.20623
       H    13.40505   -3.90634    7.59887
       O    13.78292   -4.53145    6.95959
      H1    13.52516   -4.05089    6.14613
       H     9.44364   -0.35289   12.79494
       O     9.89859   -0.93452   12.14039
      H1     9.23313   -1.08985   11.39316
       H     8.23574   -1.32827    9.62460
       O     7.87896   -0.93472   10.43802
      H1     7.47813   -1.73435   10.80548
       H    13.59157   -6.70025   11.82197
       O    14.38767   -6.16265   11.68986
      H1    14.26848   -5.38142   12.27835
       H    10.17969   -2.01185    7.77899
       O     9.30516   -1.70835    8.10991
      H1     8.60908   -2.26260    7.77465
       H    12.23302   -1.86468   10.30972
       O    12.07189   -0.89274   10.39721
      H1    11.29718   -0.86778   11.10225
       H    11.04348   -4.79378    6.44247
       O    10.72130   -5.59196    6.91393
      H1    11.10741   -5.51523    7.80486
       H    17.78175   -6.30883   10.57238
       O    17.03183   -5.73179   10.72959
      H1    16.49158   -6.02029   11.47768
       H    14.00311   -4.06036   14.16390
       O    14.17435   -3.56447   13.37174
      H1    14.95141   -2.99578   13.47682
       H    11.88751   -3.82073   10.53893
       O    12.76119   -3.54872   10.13202
      H1    13.37360   -3.41754   10.81769
       H    12.56744    1.94719    9.85410
       O    13.28853    1.45948   10.23982
      H1    12.94648    0.54716   10.22579
       H     9.57052   -4.08800   11.25440
       O    10.36939   -4.65556   11.35165
      H1    10.35950   -5.14222   12.17346
       H     9.60383   -3.00603   14.15034
       O    10.52068   -2.64960   14.10571
      H1    10.42964   -2.04567   13.34559
       H     9.81588   -0.27602    7.17511
       O    10.09813    0.40245    6.55286
      H1    10.61063   -0.08896    5.87942

