93
frame 8 | Written by MDAnalysis XYZWriter (release 2.4.3)
       H    -2.90585    3.43304   -2.59405
       O    -3.44754    3.09257   -3.34851
      H1    -4.33726    3.34898   -3.19042
       H    -6.60832    3.52831   -4.54999
       O    -6.10358    3.26706   -3.74469
      H1    -6.58165    2.43315   -3.43049
       H   -10.69375    4.32686   -4.23483
       O    -9.89989    4.56878   -4.70983
      H1    -9.96057    5.51750   -4.77845
       H    -4.85698   -0.95506   -5.94477
       O    -5.08137   -0.33298   -5.23387
      H1    -4.42091    0.35895   -5.19847
       H    -8.03109   -0.57533   -7.77647
       O    -8.01868   -0.83391   -8.73906
      H1    -8.95671   -1.05640   -8.94141
       H    -9.05114   -1.72913    2.27672
       O    -8.07782   -1.55401    2.17668
      H1    -7.82813   -0.70297    2.67045
       H    -5.47808   -2.69999   -3.48574
       O    -4.57437   -3.15816   -3.53670
      H1    -3.95911   -2.59854   -4.02143
       H    -7.38510    3.03118   -6.23759
       O    -7.50210    3.89268   -5.89294
      H1    -8.40559    3.94892   -5.50349
       H   -12.62394   -3.66474   -0.98120
       O   -12.05702   -3.13521   -1.50207
      H1   -11.40399   -2.82607   -0.87903
       H    -6.48951    4.99556    0.98163
       O    -6.40818    4.46851    0.15738
      H1    -6.85359    3.60874    0.23509
       H   -10.61383    0.14337    3.10397
       O   -10.33922    0.71014    2.32617
      H1   -10.15238    0.03137    1.66714
       H    -6.30959    1.52252   -7.39200
       O    -6.81329    1.35265   -6.62502
      H1    -6.16039    0.91935   -6.11008
       H    -3.85964    1.72668    0.88998
       O    -4.16219    1.16098    1.50726
      H1    -4.91175    0.77898    1.04796
       H    -2.34147    0.59491   -1.98050
       O    -1.38968    0.26549   -2.09603
      H1    -1.13662    0.83560   -2.85692
       H    -4.99788   -0.60834   -1.02310
       O    -5.21739   -0.81824   -0.12681
      H1    -6.08709   -1.33857   -0.18778
       H    -8.92766    1.06548   -2.96502
       O    -7.97966    1.09874   -2.95258
      H1    -7.74418    0.20177   -2.74445
       H   -10.50781    0.68416   -1.41576
       O   -10.91340    0.90868   -2.25335
      H1   -11.50738    1.66199   -2.05564
       H   -10.61834   -1.16200   -4.48661
       O   -10.07913   -1.03497   -5.27105
      H1    -9.65268   -1.87348   -5.56734
       H   -10.69862    3.64112    0.87127
       O   -10.82836    3.31870   -0.05390
      H1   -11.77903    3.37320   -0.24077
       H   -10.66702   -3.77025    1.04435
       O   -10.61175   -2.83309    0.75517
      H1   -11.37419   -2.44719    1.22813
       H    -6.42708   -0.97473   -4.13366
       O    -6.93916   -1.59532   -3.57351
      H1    -7.66447   -1.73838   -4.20422
       H    -7.29968   -3.00489   -0.75497
       O    -7.38669   -2.11513   -0.34380
      H1    -7.51902   -2.17867    0.57777
       H    -6.99084    4.88668   -1.17894
       O    -7.42991    5.16914   -2.05272
      H1    -7.04280    4.61700   -2.74223
       H    -7.39505   -3.22815   -6.26262
       O    -8.12712   -2.64413   -6.54832
      H1    -7.82310   -2.19734   -7.28902
       H   -12.00870   -0.34993   -2.95806
       O   -12.52355   -1.06850   -3.31933
      H1   -12.47664   -1.76991   -2.59432
       H    -7.91567   -4.74372   -2.25366
       O    -7.38524   -4.38723   -1.52554
      H1    -7.65132   -4.93095   -0.76554
       H    -9.94188    0.74886   -6.18806
       O    -9.48773    1.27009   -6.90367
      H1    -8.54040    1.37085   -6.59657
       H    -3.63266    0.27581   -3.03474
       O    -4.12587    0.67550   -2.28336
      H1    -4.08837    1.63266   -2.53694
       H    -8.94102    2.58145   -0.13575
       O    -8.10295    2.12666   -0.25040
      H1    -7.92512    1.88306   -1.18120
       H    -9.20988   -1.17547   -0.17793
       O    -9.50668   -0.25979   -0.12125
      H1    -8.73146    0.28607   -0.04195
       H    -4.72750   -4.67131   -6.15378
       O    -5.22168   -3.85456   -6.07653
      H1    -4.95583   -3.52738   -5.19871

