93
frame 8 | Written by MDAnalysis XYZWriter (release 2.4.3)
       H    -2.14153   13.02905    3.33018
       O    -2.15110   13.97160    3.12011
      H1    -3.04289   14.15477    2.76901
       H    -5.03519   18.04090    4.55577
       O    -5.84475   17.51638    4.64796
      H1    -5.84001   17.00304    3.84316
       H    -7.13703   13.27912    7.44397
       O    -6.85441   14.14094    7.80548
      H1    -7.59710   14.49536    8.35406
       H    -3.86647    9.79780   -3.59647
       O    -3.84446   10.35711   -2.84446
      H1    -4.63786   10.16358   -2.28283
       H    -9.66708   10.86227   -0.92187
       O    -9.16110   11.26844   -0.13544
      H1    -9.00085   12.17436   -0.42770
       H    -8.74637   12.73760    2.83863
       O    -8.52429   11.86500    2.54058
      H1    -8.91439   11.75482    1.69334
       H    -9.57292   15.98039    3.43746
       O    -9.89813   16.88687    3.48001
      H1   -10.41528   16.80433    4.28954
       H    -3.66989    9.50784    1.00378
       O    -3.45570    9.56194    1.87141
      H1    -4.19679    9.93157    2.33462
       H    -6.71153    8.65269    3.34331
       O    -7.15705    8.99256    2.54608
      H1    -6.86915    9.87564    2.45403
       H    -7.25247   15.75764   -2.25806
       O    -6.39322   15.69845   -1.75585
      H1    -6.26026   14.80980   -1.43232
       H    -4.82200   11.95892   -2.99082
       O    -5.07651   12.87590   -3.09790
      H1    -6.03916   12.90525   -3.21166
       H    -0.45831   14.89624    2.66761
       O     0.36559   15.39015    2.79931
      H1     0.18182   16.18462    3.38955
       H    -8.41869   13.18823   -2.07598
       O    -8.63336   13.78331   -1.37115
      H1    -9.52341   14.02805   -1.57624
       H    -5.17015   13.25490    2.40565
       O    -4.76575   14.07325    2.13890
      H1    -5.39103   14.80171    2.24812
       H    -5.24973   11.51885    3.80865
       O    -5.78376   11.35700    3.01835
      H1    -6.68190   11.74393    3.07819
       H    -6.10426    9.47675   -0.84644
       O    -5.31584    9.97058   -0.57339
      H1    -5.72651   10.67435   -0.04024
       H   -10.09984   13.75112    4.56738
       O    -9.80296   14.12342    3.69266
      H1   -10.66692   13.97307    3.24574
       H    -4.62422   18.15471    0.23705
       O    -4.76429   18.14657    1.17227
      H1    -4.97054   19.05963    1.46794
       H     0.08563    9.42152    2.31362
       O    -0.40063   10.10286    1.88474
      H1    -1.32484    9.85320    2.08030
       H    -1.46212   11.07841    4.86246
       O    -1.33546   11.67513    4.15499
      H1    -0.97944   11.13887    3.40834
       H    -9.83291   10.59059    2.87369
       O   -10.60343   10.00635    2.76119
      H1   -10.15640    9.39644    2.14097
       H    -5.11160   13.13942   -1.38033
       O    -5.62579   13.06520   -0.51029
      H1    -5.02440   13.35175    0.18682
       H    -7.22547   15.93309    1.81220
       O    -6.36353   16.13375    2.24163
      H1    -5.91185   16.85378    1.77367
       H    -3.25475   16.32739   -1.36145
       O    -3.99910   16.92514   -1.35376
      H1    -4.78064   16.31661   -1.37212
       H    -8.42303   14.96190    0.08443
       O    -8.69747   15.60593    0.81909
      H1    -8.55129   16.46306    0.43749
       H    -2.37808    9.37485    6.86957
       O    -2.27648    9.55546    5.95139
      H1    -3.01974   10.16570    5.64181
       H    -5.59449   16.43386    5.99258
       O    -5.17087   15.83702    6.65978
      H1    -5.87542   15.16470    6.91654
       H    -6.28930   10.31217    7.59286
       O    -6.53411   11.21083    7.47669
      H1    -7.50752   11.13157    7.23727
       H   -11.37511   13.68417    0.49334
       O   -11.33644   14.52324    1.03833
      H1   -10.47094   14.84235    1.12097
       H    -3.85103   14.95615    5.58283
       O    -2.98580   14.56568    5.61194
      H1    -2.69637   14.45900    4.74235
       H    -4.00316   12.50456    5.76066
       O    -4.58102   11.84755    5.36428
      H1    -5.13279   11.51781    6.08691

