93
frame 8 | Written by MDAnalysis XYZWriter (release 2.4.3)
       H     7.70135   10.97117   -1.69117
       O     6.78579   10.75873   -1.85726
      H1     6.60523   11.05103   -2.74943
       H     8.45946    9.25215    4.01228
       O     9.00768    8.90763    3.23996
      H1     8.54922    9.27801    2.50633
       H     5.38407   12.45330    0.21573
       O     5.30526   11.48024    0.15214
      H1     5.80265   11.24487   -0.68806
       H     6.99673    9.80001    0.36402
       O     7.75603    9.44357    0.84796
      H1     8.07352    8.70716    0.29118
       H     4.57707   14.55034    2.96152
       O     4.86449   15.09427    2.17112
      H1     4.55564   16.04063    2.24286
       H     3.74602   12.07974    6.95433
       O     2.84761   12.16990    7.36128
      H1     3.00308   11.93558    8.28378
       H     8.57324   14.80759    0.01792
       O     8.12312   14.04839   -0.39606
      H1     8.62075   13.25938   -0.16962
       H     7.89705    6.53134    4.23597
       O     7.26811    5.97016    3.69799
      H1     7.36026    6.26793    2.80567
       H     3.34720   14.14170    1.28717
       O     2.86645   13.44515    0.82458
      H1     2.53410   13.98746    0.06264
       H    10.25916   10.06156    5.68043
       O    10.69926    9.35457    5.23846
      H1    10.21020    9.27189    4.41235
       H     6.30371    8.06838    1.01598
       O     5.50870    7.59292    0.67013
      H1     4.78306    7.82141    1.30814
       H    10.55853   13.67917    4.91055
       O    10.66509   12.76379    4.76082
      H1    11.41086   12.53775    4.17188
       H     3.58090    8.70708    3.47976
       O     3.08109    8.72581    2.65271
      H1     2.66074    9.57532    2.74125
       H     8.71587   15.47452    6.32500
       O     8.90570   15.55028    5.41147
      H1     8.10329   15.39057    4.93154
       H     6.05969   16.07712    3.52122
       O     6.44065   16.27704    4.37441
      H1     5.87967   15.90750    5.10053
       H     6.70548   10.59112    4.29306
       O     6.96967    9.91095    4.93355
      H1     6.36177    9.21484    4.88330
       H     9.53240   11.21496   -2.31632
       O     9.16479   11.59429   -1.49319
      H1     9.90489   11.69830   -0.84821
       H     1.87496   12.09296    3.55761
       O     2.33162   11.50989    2.95633
      H1     2.33207   11.94758    2.10277
       H     5.47949   12.68087    5.72258
       O     5.43914   12.73069    6.69010
      H1     6.20428   12.09320    6.88204
       H    10.26640   11.44802    7.49811
       O     9.70277   11.24389    6.73680
      H1     9.99138   11.90095    6.02965
       H     7.98960   11.21303    7.50149
       O     7.16518   11.06770    8.01473
      H1     7.39769   11.31560    8.95932
       H     5.22546   14.42998    6.62812
       O     5.33290   15.36126    6.77509
      H1     4.44678   15.75994    6.89134
       H     9.98987    7.44562    2.72257
       O    10.41520    6.74546    2.16356
      H1    11.34839    7.03280    2.04274
       H    12.07746   12.25021    0.93656
       O    11.37355   12.38857    0.29208
      H1    11.75024   13.14989   -0.20173
       H     7.55393   12.15449    2.43897
       O     6.68113   11.71272    2.59106
      H1     6.47470   11.60620    1.61613
       H     3.95644   11.43509   -1.09071
       O     3.08925   11.50777   -1.60173
      H1     3.13927   12.37136   -2.05018
       H     5.34254   14.66031    0.67801
       O     5.46870   14.45916   -0.25790
      H1     6.39392   14.16002   -0.23155
       H    10.80397   15.68630    1.17224
       O     9.89418   15.43020    1.12612
      H1     9.93184   14.49657    1.43891
       H     4.55998    7.38089    5.14288
       O     5.34042    7.82529    4.81720
      H1     5.98861    7.07502    4.83060
       H     9.66908   12.64596    3.29732
       O     9.31761   12.89886    2.41717
      H1     9.86065   12.37836    1.76848
       H     5.29639   12.74945    3.43913
       O     4.58262   13.07719    4.10731
      H1     3.82939   12.46347    3.94574

