93
frame 8 | Written by MDAnalysis XYZWriter (release 2.4.3)
       H    12.10407   -6.43965    9.20052
       O    11.19496   -6.49505    9.58906
      H1    11.08712   -5.71304   10.17895
       H    15.72116    3.00416    7.33997
       O    15.77760    3.63256    6.57751
      H1    15.88909    4.50353    7.00201
       H    14.12583   -6.32840    9.54040
       O    13.80161   -6.71344    8.68713
      H1    13.85069   -6.01433    8.03264
       H     9.69056   -3.75892    5.05910
       O    10.59582   -3.34287    5.01677
      H1    11.05503   -3.86747    4.36380
       H    11.89085   -2.47164    6.62728
       O    11.85188   -2.25202    7.57898
      H1    12.60198   -1.59299    7.70377
       H    12.20250    3.17002    6.17923
       O    11.33230    3.04639    6.67755
      H1    11.12761    2.06015    6.60836
       H    10.25727   -1.54486    3.26467
       O    10.22395   -0.59488    3.18738
      H1     9.31525   -0.36710    3.55601
       H    15.35252   -2.07397    9.75666
       O    15.35817   -2.13684   10.71772
      H1    16.18310   -2.65585   10.97210
       H    13.50567   -1.69488   13.24774
       O    13.39509   -0.73230   13.25842
      H1    13.67983   -0.57802   12.30661
       H    13.24729   -4.00713    3.68443
       O    13.58024   -3.27938    4.28708
      H1    14.54101   -3.35459    4.21808
       H    16.63255   -2.87879    4.91256
       O    16.40972   -3.72717    4.54112
      H1    16.60755   -4.43774    5.14743
       H    13.99408    0.15999    7.50448
       O    14.13195   -0.79375    7.57563
      H1    14.84117   -1.01417    6.95860
       H    16.12652    1.70128    9.11065
       O    15.51181    2.40295    8.90967
      H1    14.74731    1.99098    9.33823
       H     7.13067    0.70649    6.03814
       O     7.43733    1.60193    6.20848
      H1     8.37764    1.62669    6.41045
       H    15.72518   -4.72525    7.44195
       O    16.40458   -4.38139    8.06386
      H1    16.26625   -4.88848    8.85497
       H    16.40932   -0.67396   11.20163
       O    16.89831    0.13134   11.13878
      H1    17.77214   -0.11115   10.91624
       H    18.25901    0.15190    7.16954
       O    17.55418    0.67194    6.67517
      H1    17.93123    1.54343    6.55066
       H    13.40505   -3.90634    7.59887
       O    13.78292   -4.53145    6.95959
      H1    13.52516   -4.05089    6.14613
       H     9.44364   -0.35289   12.79494
       O     9.89859   -0.93452   12.14039
      H1     9.23313   -1.08985   11.39316
       H    13.35186   -1.57046    3.91443
       O    13.51083   -0.77354    3.40408
      H1    13.01285   -0.03257    3.73479
       H     8.23574   -1.32827    9.62460
       O     7.87896   -0.93472   10.43802
      H1     7.47813   -1.73435   10.80548
       H    10.17969   -2.01185    7.77899
       O     9.30516   -1.70835    8.10991
      H1     8.60908   -2.26260    7.77465
       H    12.23302   -1.86468   10.30972
       O    12.07189   -0.89274   10.39721
      H1    11.29718   -0.86778   11.10225
       H    10.98626    2.60749    8.53356
       O    11.20946    2.74807    9.44534
      H1    10.43202    2.33758    9.84593
       H    16.62946   -0.25588    5.62480
       O    16.06215   -0.98928    5.40497
      H1    15.52127   -0.66623    4.67179
       H    11.04348   -4.79378    6.44247
       O    10.72130   -5.59196    6.91393
      H1    11.10741   -5.51523    7.80486
       H    11.09896    0.80396    3.60564
       O    11.81495    1.25131    4.12764
      H1    11.98958    2.09275    3.70854
       H    11.88751   -3.82073   10.53893
       O    12.76119   -3.54872   10.13202
      H1    13.37360   -3.41754   10.81769
       H    12.56744    1.94719    9.85410
       O    13.28853    1.45948   10.23982
      H1    12.94648    0.54716   10.22579
       H     9.57052   -4.08800   11.25440
       O    10.36939   -4.65556   11.35165
      H1    10.35950   -5.14222   12.17346
       H     9.81588   -0.27602    7.17511
       O    10.09813    0.40245    6.55286
      H1    10.61063   -0.08896    5.87942

