93
frame 9 | Written by MDAnalysis XYZWriter (release 2.4.3)
       H    -4.44426    3.55205   -2.85600
       O    -4.54079    2.70667   -3.38585
      H1    -5.45644    2.77151   -3.59788
       H    -5.29941    6.79864   -8.18266
       O    -5.33317    6.14800   -7.46309
      H1    -6.16647    6.24421   -6.92103
       H   -12.25827    6.57246   -4.45001
       O   -11.37119    6.83153   -4.10209
      H1   -11.53994    6.85741   -3.10791
       H    -9.71997    8.66559   -7.70287
       O    -9.04529    8.01819   -7.40058
      H1    -9.48341    7.18683   -7.48870
       H   -10.15449    5.13008   -6.59705
       O   -10.05015    5.33392   -7.52761
      H1    -9.55469    4.62973   -7.98947
       H    -7.28366    5.26162   -3.74545
       O    -7.40903    5.22579   -2.75694
      H1    -7.58703    4.29883   -2.59581
       H   -10.33674    4.08172   -4.40559
       O    -9.71822    4.65298   -4.90754
      H1   -10.00009    5.53485   -4.69662
       H    -7.07795    9.88883   -5.41369
       O    -6.90051    9.29662   -6.11111
      H1    -7.73694    8.88031   -6.27249
       H    -3.25960    7.56319   -0.82831
       O    -3.94052    6.95587   -0.49649
      H1    -4.11295    6.39251   -1.31271
       H    -6.42677    4.24990   -5.82154
       O    -6.94120    5.03702   -5.47761
      H1    -7.86011    4.75736   -5.42183
       H    -4.50885    7.42376   -5.04461
       O    -4.41269    8.38486   -5.29050
      H1    -5.22154    8.49373   -5.77729
       H    -4.01922    9.37169   -3.95871
       O    -3.67608    9.84095   -3.16261
      H1    -4.16975    9.45866   -2.47597
       H    -5.83998    4.46451    1.19097
       O    -6.09999    4.38270    0.27254
      H1    -6.76489    3.69874    0.33143
       H    -4.42637    5.49056   -3.11985
       O    -4.55325    5.08061   -2.25722
      H1    -5.53124    5.07022   -2.06050
       H    -5.26128    3.24806   -7.61613
       O    -5.50162    3.10820   -6.67567
      H1    -4.88634    2.39448   -6.44980
       H    -6.67522    4.11487   -9.14083
       O    -5.70076    4.15814   -9.26703
      H1    -5.47237    4.86891   -8.67685
       H    -1.52397    1.79004   -4.11809
       O    -2.23845    2.32069   -4.48109
      H1    -3.09938    2.24979   -4.00350
       H    -4.12392    5.71015   -5.99614
       O    -3.95904    5.55242   -5.04856
      H1    -3.01150    5.32862   -4.97363
       H    -8.71690    2.15161   -2.87416
       O    -7.77226    2.42520   -2.74481
      H1    -7.23314    1.73362   -3.21364
       H   -10.30926    1.47562   -1.61599
       O   -10.30755    1.70122   -2.54190
      H1   -10.99123    2.42802   -2.55300
       H   -10.97118    3.64884    0.68166
       O   -10.70830    3.39177   -0.21179
      H1   -10.78321    4.16798   -0.74784
       H    -6.50810   -0.40299   -3.69521
       O    -6.15781    0.47462   -3.85881
      H1    -5.59785    0.49860   -4.67498
       H    -7.76823    7.23898   -0.09229
       O    -8.24233    7.11389   -0.89531
      H1    -7.81927    6.43939   -1.44500
       H   -11.44228    9.83734   -4.71539
       O   -10.73740    9.34871   -5.10407
      H1   -10.86159    8.37954   -4.84064
       H    -4.28416    2.96734   -0.38172
       O    -3.74502    2.24931    0.01531
      H1    -2.85920    2.64517    0.06590
       H    -7.68681   10.34290   -1.07716
       O    -7.21163    9.64743   -1.65887
      H1    -7.56905    8.81438   -1.42233
       H    -9.74693    8.45595   -2.18890
       O   -10.33675    9.20482   -2.00814
      H1   -11.16365    8.92211   -1.66033
       H    -8.37239    0.89916   -6.01164
       O    -7.95723    1.25392   -6.79271
      H1    -7.02548    1.29832   -6.60533
       H   -10.18761    6.34629   -1.24791
       O   -10.89914    5.71422   -1.22321
      H1   -11.35833    6.00875   -0.36108
       H    -8.11455   10.18890   -3.21560
       O    -8.22064   10.73030   -4.01486
      H1    -9.04093   10.40597   -4.43365
       H    -9.07368    2.71525   -0.19287
       O    -8.20428    2.26193   -0.21771
      H1    -7.90399    2.35583   -1.15836

