93
frame 9 | Written by MDAnalysis XYZWriter (release 2.4.3)
       H     7.69989  -17.28951   18.14994
       O     8.59075  -16.93067   18.17978
      H1     8.44955  -16.12670   17.63130
       H     9.32942  -13.42345   13.29949
       O     9.70624  -14.21617   13.67521
      H1     9.12026  -14.49061   14.41418
       H     5.23104  -15.00501   20.12148
       O     6.08409  -15.02987   19.70679
      H1     6.12501  -14.38368   18.93007
       H     5.00859  -13.25904   12.58586
       O     5.82006  -13.72265   12.82409
      H1     6.01879  -14.28371   12.06243
       H     8.30328   -8.89911   13.73130
       O     8.88366   -8.27735   13.28709
      H1     9.06607   -8.65177   12.40056
       H    10.40250  -11.33352   15.43498
       O    10.02770  -11.14733   16.31002
      H1     9.89522  -11.98556   16.81937
       H    10.64924   -9.97150   17.35944
       O    11.29508   -9.43935   17.88268
      H1    11.35543   -9.90209   18.70081
       H     9.55965  -12.16366   18.89168
       O     9.65187  -12.97302   18.34591
      H1    10.61249  -13.28255   18.44742
       H    -0.04443  -11.28179   16.16697
       O    -0.33913  -10.55257   15.58341
      H1    -0.98640  -10.10730   16.13908
       H     5.55324  -11.10928   18.22729
       O     6.03909  -10.87687   17.40061
      H1     6.61315  -10.17418   17.67625
       H     4.57440   -9.83458   14.26946
       O     4.99222   -9.16981   13.66759
      H1     4.32264   -8.96601   12.97865
       H     7.81911  -15.89693   15.40089
       O     8.25434  -15.07808   15.73416
      H1     7.59126  -14.54711   16.24883
       H     3.30548   -9.65998   16.33580
       O     3.90246  -10.31551   16.01050
      H1     4.69003  -10.27106   16.63841
       H     8.25974  -11.49718   13.40889
       O     8.28781  -12.06812   12.64701
      H1     7.45714  -12.58203   12.73400
       H     1.91216   -8.08814   19.42901
       O     1.33014   -8.64669   18.90896
      H1     1.49657   -8.25404   18.00387
       H     2.35444  -11.67242   19.81790
       O     2.98667  -11.39769   19.11291
      H1     3.00030  -10.47378   19.12948
       H     5.46156  -16.87497   18.39214
       O     5.98505  -17.59022   18.04188
      H1     5.53049  -18.43068   18.29158
       H     4.78360   -6.25267   13.38823
       O     4.99176   -6.60861   14.27022
      H1     4.93431   -7.60157   14.21511
       H     3.11995   -6.89075   16.66831
       O     3.63793   -6.19884   17.14368
      H1     4.52310   -6.55398   17.32140
       H     1.99943  -13.99312   14.92106
       O     1.38231  -14.59283   15.35810
      H1     1.57661  -15.42820   15.00887
       H     8.78334   -5.25892   19.52973
       O     8.77490   -5.97014   18.83476
      H1     8.81123   -5.48268   18.02202
       H     3.37419  -11.89925   14.89447
       O     3.14000  -12.68156   14.37628
      H1     2.85818  -12.31563   13.52634
       H     7.08278   -8.32589   18.05950
       O     7.74560   -8.96958   18.20263
      H1     8.60464   -8.52208   18.14107
       H     6.25241  -12.75532   17.31790
       O     6.34545  -13.70222   17.29935
      H1     5.53229  -14.00229   16.84919
       H     8.32026  -10.53859   15.48141
       O     7.74165  -10.39005   14.70962
      H1     6.81012  -10.42085   15.02495
       H     3.11595  -15.65463   17.58818
       O     3.97288  -15.44284   17.15070
      H1     3.89890  -15.77253   16.24444
       H     6.79434   -6.48576   14.68234
       O     7.65155   -6.35193   15.12775
      H1     8.37001   -6.81214   14.61931
       H     6.58982   -6.58006   16.74662
       O     6.16142   -6.88252   17.56065
      H1     6.29545   -6.21741   18.21652
       H     5.08078  -14.98529   13.69853
       O     4.68201  -15.72776   14.20277
      H1     3.97916  -15.90215   13.51841
       H     1.10835   -9.23020   16.12888
       O     1.73211   -8.56885   16.28345
      H1     1.86596   -8.16188   15.40603
       H     1.22527  -13.35079   16.71658
       O     0.85974  -12.82154   17.48310
      H1     1.62447  -12.25983   17.73332

