93
frame 9 | Written by MDAnalysis XYZWriter (release 2.4.3)
       H    -4.43211    5.37126  -17.29652
       O    -4.86315    5.70191  -16.49813
      H1    -4.30849    5.53340  -15.69832
       H    -5.29941    6.79864   -8.18266
       O    -5.33317    6.14800   -7.46309
      H1    -6.16647    6.24421   -6.92103
       H   -10.69922    8.32122  -11.85812
       O   -10.30818    8.31259  -12.77795
      H1    -9.91365    7.44767  -12.99166
       H    -8.82204    7.91122  -16.46195
       O    -8.15565    8.53574  -16.13123
      H1    -7.88923    9.06810  -16.90485
       H    -6.32599    0.54780  -14.67433
       O    -5.37511    0.57813  -14.62831
      H1    -5.16745    1.43800  -14.21739
       H     0.65261    6.82336  -14.24902
       O     0.03869    7.13219  -13.55885
      H1    -0.32563    6.38999  -13.11852
       H    -2.97611    6.96728  -11.29743
       O    -3.69383    6.42246  -10.96628
      H1    -4.28903    6.26282  -11.73330
       H    -4.65852    7.67499  -17.32425
       O    -4.65401    8.51812  -17.81103
      H1    -4.15316    9.28470  -17.38712
       H    -5.81795    6.29354  -13.27896
       O    -5.24526    5.63537  -12.84122
      H1    -4.60891    5.31904  -13.52022
       H    -1.99602    7.36964  -15.84731
       O    -2.52296    7.36266  -14.99338
      H1    -3.45050    7.73270  -15.04218
       H    -9.05976    5.15636  -13.22636
       O    -9.17012    5.93934  -13.80053
      H1    -8.86246    5.71047  -14.67124
       H    -6.73234    0.67384  -11.28967
       O    -6.94406   -0.24902  -11.29691
      H1    -7.64971   -0.20814  -10.65196
       H    -6.67522    4.11487   -9.14083
       O    -5.70076    4.15814   -9.26703
      H1    -5.47237    4.86891   -8.67685
       H    -8.04098    9.56706  -11.07954
       O    -7.88476    9.67744  -12.08438
      H1    -8.58121    9.14911  -12.44761
       H    -9.80845    3.38294  -11.47192
       O    -9.19569    2.61098  -11.44372
      H1    -8.52471    2.74363  -12.11219
       H    -4.14850    5.92913  -19.60167
       O    -4.16645    5.06031  -19.19245
      H1    -3.91069    4.45957  -19.91525
       H    -2.11174    3.73911  -10.88304
       O    -1.67289    4.58633  -10.71679
      H1    -2.54123    5.09098  -10.85460
       H    -4.59376    3.28648  -18.44503
       O    -4.56749    2.40476  -18.05833
      H1    -5.22561    1.84030  -18.61197
       H    -1.45471    1.52216  -12.31292
       O    -0.76049    1.34612  -12.98013
      H1    -0.33695    0.51928  -12.70332
       H    -1.46651    2.79187  -17.30475
       O    -1.51211    3.60884  -16.75921
      H1    -0.70453    3.55098  -16.26273
       H    -2.41547    5.22364  -14.69926
       O    -3.13215    4.58940  -14.58285
      H1    -2.98785    3.94208  -15.28687
       H    -2.52002    1.42119  -10.15104
       O    -2.51106    2.01013  -10.94999
      H1    -3.46192    2.17497  -11.16189
       H    -6.62289    5.06429  -16.23245
       O    -7.48182    4.68015  -16.09544
      H1    -7.81412    4.08884  -16.70994
       H    -6.61358    8.37744  -12.98133
       O    -6.16827    7.98756  -13.78793
      H1    -6.93291    8.01953  -14.41915
       H    -4.31157    7.96614   -9.87400
       O    -4.91256    8.39717   -9.19596
      H1    -4.33463    8.90949   -8.56220
       H    -2.30168    6.42348  -18.27449
       O    -1.79829    6.95061  -17.66227
      H1    -0.88148    6.77764  -17.92512
       H    -3.37525    9.68582  -14.04378
       O    -4.29171    9.88319  -14.40202
      H1    -4.86192    9.13351  -14.14546
       H    -1.25612    8.79802  -13.72777
       O    -1.58895    9.65909  -13.54686
      H1    -1.43572    9.79428  -12.59934
       H    -1.92695    5.85320   -7.76853
       O    -1.74520    4.96666   -8.11700
      H1    -1.88931    4.96698   -9.06642
       H    -5.87896    2.91369  -10.67638
       O    -5.83919    2.23703  -11.37563
      H1    -6.16255    2.73837  -12.16660
       H    -7.36239    3.81854  -14.14132
       O    -7.14424    3.77972  -13.22096
      H1    -6.54751    4.58557  -13.08644

