93
frame 9 | Written by MDAnalysis XYZWriter (release 2.4.3)
       H   -16.47892   -6.13625    9.29641
       O   -16.84971   -6.79357    8.66960
      H1   -17.29269   -6.27947    8.02167
       H   -13.11951  -12.45886    8.49309
       O   -13.47419  -12.96898    7.70384
      H1   -14.02738  -12.25675    7.24021
       H   -17.87264   -9.70778   11.34914
       O   -17.75556  -10.58341   11.82475
      H1   -18.69635  -10.81754   12.01837
       H   -12.79541   -7.65600    9.22935
       O   -13.59281   -8.21073    9.45277
      H1   -14.39921   -7.70549    9.25546
       H   -17.57256   -7.68829   10.01200
       O   -18.01064   -7.80415   10.89084
      H1   -18.91868   -7.71783   10.54058
       H   -17.23360  -16.14085    7.63909
       O   -18.12982  -16.38994    7.43657
      H1   -18.49540  -15.61265    6.90476
       H   -11.78077   -9.65307   12.24500
       O   -11.63209  -10.64713   12.16195
      H1   -12.34587  -10.75061   11.50437
       H   -16.82647  -10.03125   13.44802
       O   -16.71446   -9.60949   14.29763
      H1   -15.82908   -9.83917   14.62215
       H   -17.49630   -9.99667    8.13282
       O   -16.91587   -9.34239    7.68663
      H1   -17.05179   -8.43221    8.06937
       H   -16.72671  -15.10441    3.70176
       O   -17.09829  -14.26106    3.37748
      H1   -16.47458  -13.55299    3.58360
       H   -16.93154   -7.44733   13.96578
       O   -17.24721   -6.72269   13.37349
      H1   -17.14939   -7.14125   12.49757
       H   -15.06722  -13.02930    8.95098
       O   -15.96753  -13.35312    8.88869
      H1   -16.07020  -13.99921    9.57771
       H   -15.10616  -12.05932   12.69603
       O   -15.12472  -11.13733   12.40077
      H1   -16.08995  -11.02713   12.22612
       H   -18.85571  -14.37058    4.78950
       O   -19.26908  -14.09711    5.63341
      H1   -20.09703  -14.45453    5.64111
       H   -17.10347  -10.63796    2.76950
       O   -18.05494  -10.56363    2.99800
      H1   -18.08192  -10.78763    3.93906
       H   -15.49195  -14.35441   12.42272
       O   -14.99343  -13.82018   13.03243
      H1   -15.33383  -14.07028   13.89959
       H   -14.27542  -11.17214   10.84880
       O   -13.70980  -10.94920   10.07546
      H1   -13.85062  -10.02134    9.79760
       H   -19.01560  -12.08031    5.50924
       O   -18.87870  -11.11764    5.60991
      H1   -19.75309  -10.78623    5.32549
       H   -14.52462   -7.83951    6.07977
       O   -13.77936   -8.36314    6.45222
      H1   -13.88929   -8.33699    7.37793
       H   -15.42335  -11.33239    3.40309
       O   -15.69717  -11.85918    4.19040
      H1   -15.64950  -11.24819    4.91257
       H   -17.31723  -12.22379    8.88872
       O   -18.14762  -11.68008    9.07616
      H1   -18.04263  -11.37658    9.98587
       H   -19.09561   -9.49398    6.77162
       O   -19.61068   -8.68204    6.94140
      H1   -19.10072   -7.96473    6.59140
       H   -14.88801  -16.13141    7.60053
       O   -15.25505  -15.45990    7.01865
      H1   -14.99963  -14.67676    7.50538
       H   -19.95455   -5.95228    9.07552
       O   -19.52715   -5.35098    8.47282
      H1   -19.39135   -4.46995    8.85814
       H   -17.24473  -17.72758    5.02647
       O   -16.73186  -16.97715    4.68284
      H1   -16.72058  -16.36806    5.46247
       H   -19.59040  -16.31626   12.06165
       O   -19.96492  -17.16102   12.28696
      H1   -19.53692  -17.54571   13.06040
       H   -15.58962  -10.29947    6.76974
       O   -14.78555  -10.75936    6.47956
      H1   -14.21054   -9.99827    6.27638
       H   -14.32138  -13.36520    4.67401
       O   -14.11133  -14.29913    4.62060
      H1   -14.15670  -14.66112    5.53514
       H   -17.71096   -6.69107    5.16628
       O   -18.56163   -6.29725    5.42736
      H1   -19.18404   -6.57894    4.74906
       H   -17.22660  -14.68361   11.19357
       O   -16.35017  -14.95235   11.00289
      H1   -16.44250  -15.94257   10.95668
       H   -15.12840   -8.59344   12.65602
       O   -14.96672   -7.84509   12.04628
      H1   -14.23892   -8.08930   11.43627

