93
frame 9 | Written by MDAnalysis XYZWriter (release 2.4.3)
       H   -18.38992   12.07441   -8.18478
       O   -18.48802   11.14850   -8.61531
      H1   -19.34710   11.11852   -8.95552
       H   -10.69922    8.32122  -11.85812
       O   -10.30818    8.31259  -12.77795
      H1    -9.91365    7.44767  -12.99166
       H   -14.68388   12.20490   -9.73596
       O   -14.96867   12.16388   -8.85003
      H1   -15.52223   12.95922   -8.70401
       H   -15.26591   12.65546  -12.32318
       O   -14.97522   11.78154  -11.90156
      H1   -15.67417   11.46439  -11.33979
       H   -17.97982    3.61905  -10.40086
       O   -17.28738    3.47763  -11.08979
      H1   -16.69770    2.80362  -10.62670
       H   -14.48640    1.80993  -11.57670
       O   -14.41918    2.48158  -10.89133
      H1   -14.85411    3.22430  -11.26037
       H   -14.34803    8.96539  -11.24412
       O   -13.62790    9.42644  -11.71200
      H1   -13.85520   10.33342  -11.96618
       H   -12.01959    9.69032   -7.72574
       O   -12.60459    8.98973   -7.83757
      H1   -13.48880    9.38002   -7.74887
       H   -11.91844    8.63961   -9.39169
       O   -11.68158    8.27613  -10.24462
      H1   -12.37487    8.74775  -10.73368
       H   -11.16062    5.09519  -10.72318
       O   -10.64985    4.78771  -11.50802
      H1   -11.36136    4.60885  -12.12833
       H   -19.07519   11.42400  -13.35789
       O   -18.20774   11.53972  -12.89915
      H1   -17.95592   12.33151  -13.37133
       H   -15.64712    5.53919  -13.99810
       O   -15.13969    5.49281  -13.17813
      H1   -14.66762    6.33320  -13.08856
       H   -18.72251    9.84784   -6.25159
       O   -19.23960   10.37491   -5.58100
      H1   -19.46734    9.61904   -5.00853
       H   -15.18103    7.14370   -9.48013
       O   -15.52767    7.81019  -10.06720
      H1   -16.11539    7.30787  -10.62545
       H   -14.79917    6.56787   -7.24753
       O   -14.83833    6.10465   -8.07614
      H1   -13.90591    6.00494   -8.34713
       H   -16.82411   10.01316   -3.53733
       O   -16.87838    9.03488   -3.55741
      H1   -16.97803    8.82785   -4.49155
       H   -13.49251    3.11035   -7.38451
       O   -14.32496    3.45188   -7.07627
      H1   -14.46519    4.37958   -7.30135
       H   -12.19541    6.64693   -9.36693
       O   -12.24659    5.67982   -9.28952
      H1   -11.60094    5.49626   -8.59341
       H   -18.21276    8.42749   -7.35327
       O   -17.49367    8.48371   -6.71863
      H1   -16.80259    9.08716   -7.05998
       H   -18.08410    8.06719  -14.90461
       O   -17.58516    8.72632  -15.41980
      H1   -17.35173    9.30150  -14.67578
       H   -16.56000    5.96017  -12.05659
       O   -17.23001    6.61085  -11.78841
      H1   -17.78379    6.13761  -11.18429
       H   -15.10798   11.25050  -15.00839
       O   -15.16031   10.49226  -14.46375
      H1   -15.39218   10.94339  -13.65462
       H   -13.44431    4.45204  -13.28126
       O   -12.78536    3.79313  -13.10967
      H1   -13.12353    3.36061  -12.31978
       H   -15.06048   10.53010   -5.90495
       O   -15.51504   11.15264   -5.32722
      H1   -15.06285   12.03644   -5.46965
       H   -17.80429    6.82915   -5.87974
       O   -18.00201    5.96998   -5.45477
      H1   -18.43103    5.46594   -6.14133
       H   -17.45142   10.59063   -9.84908
       O   -16.90073   10.43269  -10.61256
      H1   -17.53888   10.69692  -11.31191
       H   -12.34658    6.81940  -14.57760
       O   -11.71985    6.11544  -14.79443
      H1   -10.92879    6.13917  -14.19608
       H   -13.66606    8.39220  -13.23207
       O   -13.83724    7.91910  -14.08367
      H1   -14.29646    8.64877  -14.54855
       H   -18.93471    5.50680  -14.15938
       O   -18.29789    6.26627  -14.34264
      H1   -17.92322    6.53101  -13.43900
       H   -13.13016    7.75856   -5.91275
       O   -13.81878    7.13675   -5.68095
      H1   -14.16846    7.47277   -4.85951
       H   -15.48486    8.90933   -8.26904
       O   -15.18753    9.57437   -7.64038
      H1   -15.12962   10.47790   -8.03510

