93
frame 9 | Written by MDAnalysis XYZWriter (release 2.4.3)
       H    14.94949  -13.65585    3.54799
       O    14.30001  -13.20787    2.96209
      H1    13.52222  -13.82373    2.83814
       H    17.16201  -15.63167    0.01309
       O    17.00949  -14.74015   -0.32543
      H1    16.39904  -14.88907   -1.09813
       H    11.77463  -13.86801    1.56590
       O    11.73485  -14.32107    2.42566
      H1    11.89507  -15.24082    2.11757
       H    18.49599  -13.79258   -0.30652
       O    19.13329  -13.03375   -0.31778
      H1    19.06429  -12.62299    0.58168
       H    13.49582  -10.00461    0.17307
       O    13.06658   -9.73669   -0.64734
      H1    12.36392  -10.35326   -0.83545
       H    17.71157   -9.21761   -0.03417
       O    17.35597   -8.48540    0.51884
      H1    16.56406   -8.86504    0.90968
       H    15.78577  -12.74371    2.09337
       O    16.60780  -12.63513    1.62501
      H1    16.57366  -13.17820    0.81407
       H    18.17352  -12.43176    3.59293
       O    17.90796  -11.94439    4.43187
      H1    17.49079  -11.11930    4.13344
       H    18.82152  -12.23923    8.30186
       O    18.15151  -12.88869    8.44695
      H1    18.54042  -13.79792    8.26103
       H    15.36802  -14.12126    5.18460
       O    16.16942  -14.09175    4.58186
      H1    16.62923  -13.27409    4.89103
       H    11.33419   -9.13212    6.03112
       O    11.86394   -9.92693    6.14429
      H1    12.47462   -9.65152    6.82532
       H    15.85354  -10.78903    1.36561
       O    15.31753   -9.91573    1.28751
      H1    14.92255   -9.70706    2.15199
       H    15.57719  -13.63287    8.88743
       O    14.96826  -13.03515    8.46648
      H1    14.18603  -13.06283    9.01060
       H     8.65363  -13.48869    2.60963
       O     8.87516  -14.36024    2.22006
      H1     9.86180  -14.42457    2.19608
       H    12.26687  -12.17691    3.67778
       O    11.47041  -11.62606    3.84415
      H1    11.51560  -11.49026    4.82124
       H    17.27624   -8.18801    4.22301
       O    16.81330   -9.05544    4.39753
      H1    16.67075   -8.94228    5.35632
       H    14.09588  -12.45227   -1.07784
       O    13.45903  -13.09651   -0.74504
      H1    13.59387  -13.92385   -1.27196
       H    13.85911   -9.85468    8.80530
       O    13.59033  -10.43918    8.09714
      H1    14.14268  -11.24329    8.21105
       H     8.58902  -11.11007    1.95888
       O     8.54110  -11.62921    2.81062
      H1     9.51178  -11.85445    2.93250
       H    15.56364  -15.67989   -2.87298
       O    15.04187  -15.17898   -2.29255
      H1    14.27208  -15.63462   -1.99609
       H    14.18223  -13.69382    7.01541
       O    14.08625  -14.38153    6.36877
      H1    14.82510  -14.96800    6.58001
       H    12.75987  -15.92068    8.65093
       O    12.07974  -15.47380    8.08884
      H1    12.60607  -15.13117    7.31783
       H    17.35352  -17.36923    4.71690
       O    17.10080  -16.69078    4.12730
      H1    16.94438  -15.90768    4.59934
       H    13.97007  -18.27414    4.92752
       O    14.35016  -18.52514    5.82292
      H1    13.57456  -18.52962    6.36949
       H    17.85384  -17.87922    0.99464
       O    17.03737  -17.53679    0.57879
      H1    16.40116  -17.48190    1.32998
       H    10.52428   -9.98120    1.74011
       O    11.34202   -9.49731    1.88379
      H1    11.58221   -9.90078    2.75079
       H    16.56650  -16.54500    6.79353
       O    15.60681  -16.52351    7.06562
      H1    15.22808  -17.14786    6.45267
       H    14.24955  -17.37054    2.38429
       O    15.01100  -17.84566    2.73187
      H1    15.79841  -17.28697    3.04264
       H    12.82240  -16.77497    0.56730
       O    12.91792  -16.73856    1.51905
      H1    12.17060  -17.25016    1.94383
       H    16.41575  -10.36892    7.34023
       O    16.70154   -9.49531    7.11476
      H1    17.53517   -9.27754    7.50688
       H    10.48922  -11.96733    0.13017
       O    10.86053  -12.86993    0.12324
      H1    11.71616  -12.77037   -0.32711

