93
frame 9 | Written by MDAnalysis XYZWriter (release 2.4.3)
       H     1.89485  -17.35571  -10.03265
       O     1.55111  -17.84303  -10.79261
      H1     1.71882  -17.23871  -11.51610
       H     1.18650  -18.83771  -15.89254
       O     2.03057  -18.95400  -15.49757
      H1     1.92578  -19.74503  -14.87431
       H     5.28916  -16.83832  -17.04657
       O     4.51847  -16.44256  -16.57453
      H1     4.68454  -15.47337  -16.73658
       H     5.60761  -13.27381  -12.91811
       O     4.68175  -13.28998  -13.09693
      H1     4.49684  -12.32386  -13.24332
       H     8.59564  -17.64328   -9.08106
       O     8.06141  -16.95505   -9.55813
      H1     7.24366  -17.45722   -9.60542
       H     5.58362  -16.52411   -6.70118
       O     5.08520  -16.88342   -5.93346
      H1     5.21549  -16.29846   -5.14605
       H     4.89248  -13.32468   -8.89292
       O     5.50511  -13.17195   -8.16627
      H1     5.02126  -12.76559   -7.47247
       H     0.60748  -14.95314  -15.20883
       O     1.15973  -15.58366  -15.72367
      H1     1.58131  -16.11143  -15.04922
       H     1.99486  -17.81471  -14.14661
       O     2.04041  -17.14682  -13.45020
      H1     2.94980  -16.80903  -13.49580
       H    11.56295  -13.44677  -10.43021
       O    10.74545  -13.09395  -10.71809
      H1    10.13678  -13.84648  -10.60516
       H     6.38180  -14.90876   -7.89149
       O     6.87527  -15.62733   -7.48719
      H1     7.36204  -16.01607   -8.21233
       H     2.71184  -11.27225   -8.09348
       O     2.48389  -11.32545   -8.98390
      H1     1.56401  -11.35997   -9.22160
       H     5.65123  -19.51042  -11.92043
       O     4.79720  -19.02858  -11.88162
      H1     4.42819  -19.22471  -12.75171
       H     6.74082  -18.10282  -15.97305
       O     6.59880  -18.91727  -15.44541
      H1     7.46348  -19.36807  -15.58616
       H     8.62986  -16.07229  -12.20979
       O     8.78878  -15.29300  -11.58179
      H1     8.33661  -15.59169  -10.75540
       H     4.88787  -18.14522   -9.57609
       O     5.11559  -18.04615   -8.65325
      H1     4.25117  -18.22109   -8.24813
       H     0.17432  -16.66758  -13.22189
       O    -0.68121  -16.35881  -12.93655
      H1    -0.49335  -15.63819  -12.32694
       H     4.41683  -16.18122  -14.85243
       O     4.56146  -16.05745  -13.88435
      H1     4.55834  -15.08866  -13.70987
       H     5.33056  -16.39167  -11.94967
       O     5.48060  -16.22526  -11.03781
      H1     4.54486  -16.10179  -10.80569
       H     3.95428  -10.12359  -12.91372
       O     3.68414  -10.84316  -13.46791
      H1     2.73616  -10.73892  -13.33216
       H    -0.09744  -17.43528   -9.69487
       O    -0.73982  -17.74820   -9.03939
      H1    -0.56134  -18.71475   -9.00765
       H     6.36203  -11.50456   -7.95083
       O     6.96722  -10.84109   -7.79547
      H1     6.89530  -10.25549   -8.56925
       H     2.25013  -14.21663  -10.60623
       O     1.46861  -14.78380  -10.84687
      H1     0.69758  -14.22701  -10.77547
       H     3.42361  -12.39180  -10.05768
       O     3.67141  -13.20998  -10.52307
      H1     3.92937  -12.96134  -11.44768
       H     7.36410  -13.34930  -14.14227
       O     7.73930  -13.22676  -13.27794
      H1     7.91499  -14.14130  -12.97890
       H     1.83984  -14.96052   -7.41587
       O     1.51143  -15.23812   -6.54853
      H1     0.66314  -14.70332   -6.46274
       H     7.57988  -16.67065  -14.55496
       O     7.06203  -15.88521  -14.70229
      H1     6.17398  -16.09608  -14.31587
       H     8.35765  -14.82740   -7.12371
       O     9.30911  -14.75220   -6.76224
      H1     9.78861  -13.94047   -7.04419
       H     3.00975  -19.08938   -6.21628
       O     3.08179  -18.35208   -6.85078
      H1     3.74881  -17.78834   -6.39850
       H     7.12229  -13.45043  -16.77004
       O     6.56495  -13.43941  -15.99201
      H1     6.78933  -14.32682  -15.64603
       H     9.34923  -18.10051  -12.38814
       O     9.00017  -17.58875  -13.15661
      H1     9.78095  -17.40181  -13.69814

