93
frame 10 | Written by MDAnalysis XYZWriter (release 2.4.3)
       H     7.85796    9.18133   -2.09526
       O     6.98428    8.83327   -2.36450
      H1     6.87045    9.10627   -3.28131
       H    11.74050    5.98078   -7.45436
       O    11.18887    5.34977   -7.00350
      H1    11.63156    5.31349   -6.13353
       H     4.24792    6.97905   -4.37678
       O     4.02036    7.63171   -5.02358
      H1     3.96292    7.20415   -5.89089
       H    10.70037    3.95561   -1.91943
       O    11.66070    4.12945   -2.10291
      H1    12.05951    3.64599   -1.36298
       H     9.46652    1.44020   -7.81757
       O     9.14213    0.65521   -8.34333
      H1     8.63432    1.05495   -9.07800
       H     5.64539    5.92033   -2.24146
       O     4.80403    5.72374   -2.70815
      H1     4.21663    5.68207   -1.97032
       H     5.40294    3.76473   -8.45969
       O     4.61912    4.28064   -8.63388
      H1     4.05566    4.13139   -7.87077
       H     9.87639   10.21958   -8.94962
       O     9.76671   10.21362   -9.88241
      H1     9.83877    9.28849  -10.17793
       H     6.27893    2.70998   -3.18919
       O     6.18881    3.26142   -3.96226
      H1     5.78394    4.03594   -3.56510
       H    12.53742    1.96308   -4.80022
       O    11.68712    1.47887   -4.84164
      H1    11.63456    0.90377   -4.06955
       H     7.40809    2.50470   -7.50856
       O     7.18314    3.24292   -8.09464
      H1     7.82858    3.93653   -7.87320
       H    10.17696    9.15141   -6.41936
       O    10.08941    9.47371   -7.35325
      H1     9.62716    8.80507   -7.92698
       H     6.86509    0.88307  -10.26152
       O     7.49113    1.62111  -10.33363
      H1     7.22248    2.24930   -9.66245
       H    12.54615    5.22653   -3.64913
       O    12.65737    5.50089   -4.57234
      H1    13.28715    6.24141   -4.43938
       H     8.13190    6.37101   -6.33438
       O     8.53311    5.71870   -6.91346
      H1     9.51585    5.67994   -6.76491
       H     8.61856    6.96043   -8.23556
       O     8.62784    7.80278   -8.66278
      H1     7.71312    8.13608   -8.46054
       H     6.49494    9.45694   -6.16164
       O     7.11263    9.92566   -5.57632
      H1     6.55504   10.34831   -4.94455
       H     8.87219    3.28970   -2.22898
       O     9.17089    3.03548   -1.37852
      H1     8.49195    3.42882   -0.79896
       H     9.68167    7.57533  -11.68951
       O    10.51197    7.64177  -11.09793
      H1    10.22947    6.98463  -10.43359
       H     5.00816    3.49840   -5.32021
       O     4.15388    3.30700   -5.80441
      H1     3.47134    3.08861   -5.12540
       H    13.31274   10.93406   -5.84097
       O    13.26385   10.06548   -5.40237
      H1    12.34368    9.66148   -5.57231
       H    10.64175    2.10354   -6.13100
       O    10.00785    2.55238   -6.72302
      H1    10.42085    3.35178   -6.99652
       H     5.49004    9.10263   -8.63852
       O     6.01848    8.61660   -7.95011
      H1     5.43511    7.92533   -7.70401
       H     6.29481    7.14789   -5.24497
       O     7.29578    7.12506   -5.04049
      H1     7.55754    8.02362   -5.03898
       H     7.41014    7.08056   -2.19112
       O     7.40834    6.15835   -2.43472
      H1     7.37481    6.11880   -3.40998
       H     7.45989   12.49628   -6.85271
       O     7.93199   11.95055   -7.46876
      H1     8.21825   11.16997   -6.99945
       H    13.30653    7.01662   -9.95468
       O    12.85817    6.19287   -9.89632
      H1    12.97884    5.70431  -10.72064
       H     9.25231    3.28665   -5.09353
       O     9.08857    3.59486   -4.19005
      H1     8.16191    3.29208   -4.14298
       H     4.08284    6.05304   -8.31663
       O     4.03987    6.79633   -7.75102
      H1     3.26068    7.28335   -8.07390
       H    10.30841    8.16404   -4.41414
       O    10.46372    9.04068   -4.81178
      H1    10.13708    9.75141   -4.31597
       H    10.67002    5.81147   -3.23255
       O    10.29042    6.61477   -2.85016
      H1     9.45800    6.31441   -2.52104

