93
frame 10 | Written by MDAnalysis XYZWriter (release 2.4.3)
       H    13.22766    5.51054   16.54482
       O    13.14743    4.63296   16.86136
      H1    12.65169    4.12822   16.23279
       H    10.58840    5.45070   17.87506
       O    11.07127    4.86597   18.49596
      H1    11.89825    4.70678   18.04752
       H    16.14902    6.23822   10.79614
       O    15.24754    6.61219   10.73687
      H1    14.83332    6.48163   11.59125
       H     9.85293    8.92819   19.52459
       O     8.98527    8.72124   19.18696
      H1     8.69761    8.06829   19.81151
       H     9.75996    3.62383   18.27480
       O     8.94715    3.09780   18.41265
      H1     9.24207    2.49470   19.11202
       H     8.49798    2.34138   16.88914
       O     8.43202    2.00534   15.92819
      H1     7.50022    2.23210   15.66012
       H    16.64944    1.58426   15.42026
       O    17.17485    0.81909   15.17972
      H1    17.19937    0.25166   15.98140
       H    10.34173    3.02561   15.65620
       O    11.26136    2.88301   15.56600
      H1    11.51370    3.30173   14.75837
       H    13.20196    2.68621   13.20731
       O    12.59698    3.40858   13.13375
      H1    11.94619    3.19555   12.44676
       H    16.56448    3.61761   13.76660
       O    16.60902    3.79982   14.71475
      H1    15.83371    3.47273   15.16498
       H     9.23877    6.74910   16.32384
       O    10.12572    6.46325   16.12985
      H1     9.97457    5.93176   15.32850
       H    14.17234    8.82895   13.80018
       O    13.26562    8.90977   14.12297
      H1    12.66851    8.79159   13.33742
       H    14.86621    1.21837   13.27055
       O    14.16517    1.31335   13.94892
      H1    13.45135    0.81631   13.55308
       H    15.13026    7.71725   17.72773
       O    16.05838    7.39927   17.74834
      H1    16.14486    6.93398   16.88501
       H    18.95701    6.16813   18.47180
       O    18.15403    5.91505   19.05362
      H1    17.50974    6.60994   18.78387
       H    14.02617   11.59176   15.75648
       O    13.17388   11.44832   15.36079
      H1    13.07864   10.51757   15.08137
       H    15.49812    2.38222   19.89683
       O    16.06443    2.48435   19.14487
      H1    15.54757    2.57646   18.31108
       H    12.77875    0.84770   18.14662
       O    12.70701    1.13076   19.07493
      H1    13.06377    0.34079   19.47196
       H    13.28169    6.58683   13.67624
       O    13.46274    6.24432   12.78802
      H1    13.37918    5.27028   12.81341
       H     9.77512    5.07144   13.04251
       O     9.45435    4.78655   13.93051
      H1     8.51718    4.67010   13.80105
       H    14.29809    2.16702   16.69199
       O    14.98817    2.80191   16.76119
      H1    14.49294    3.61530   16.95781
       H    12.68576   -0.17183   16.37419
       O    13.50976    0.42393   16.37531
      H1    13.78971    0.73596   15.46628
       H    11.99872    6.98939   16.00351
       O    12.92636    6.95583   15.84820
      H1    13.10408    7.78035   15.35004
       H    10.91958    4.75930   11.03051
       O    10.91568    5.44543   11.70226
      H1    11.78473    5.70972   11.95955
       H    16.87800    5.70761   14.66152
       O    17.08507    6.55369   15.03056
      H1    16.64819    7.16857   14.40988
       H     8.94079    0.14477   14.34953
       O     9.88440    0.30959   14.52431
      H1     9.83215    1.19037   14.90968
       H    15.48980    8.83579   12.60772
       O    15.85891    8.61929   13.51629
      H1    16.44655    9.37281   13.78333
       H    17.39189   10.43539   18.20471
       O    17.76758    9.52742   18.17924
      H1    17.01030    8.95461   18.31040
       H    11.26661   10.83161   15.91869
       O    10.42906   10.75669   15.48196
      H1     9.72425   10.45417   16.13943
       H    14.33355   10.05291   18.97673
       O    14.26148    9.14383   18.63182
      H1    13.98222    8.57823   19.33390
       H    19.15342    2.51364   16.35658
       O    19.31550    3.23874   15.76295
      H1    18.47540    3.45202   15.40821

