93
frame 10 | Written by MDAnalysis XYZWriter (release 2.4.3)
       H    17.78516  -14.34865   -0.31126
       O    18.56517  -13.84496   -0.12827
      H1    18.38070  -13.37095    0.69905
       H    14.27511   -7.86987    4.04253
       O    13.49752   -7.59097    3.67813
      H1    13.77352   -7.03574    2.92077
       H    13.22276   -9.31077    0.13429
       O    13.39435   -8.96921   -0.75782
      H1    12.84352   -9.51628   -1.41428
       H    17.32740   -9.70927    0.37655
       O    17.26393   -9.28789    1.26479
      H1    16.37022   -9.19158    1.55660
       H    18.86485   -4.01768    0.33038
       O    18.11324   -4.56746    0.68676
      H1    18.35593   -4.91097    1.52569
       H    18.09480   -5.99959   -3.66134
       O    18.85374   -6.48070   -3.31518
      H1    18.83894   -6.55555   -2.35479
       H    13.53212  -12.42855    1.94340
       O    13.88796  -12.13761    1.09484
      H1    14.55960  -12.76350    0.88367
       H    17.15482  -10.62741    2.81767
       O    16.87492  -10.89734    3.69692
      H1    16.54269  -10.12183    4.12993
       H    18.19036  -12.73973    2.68608
       O    18.62760  -12.26723    1.99550
      H1    19.58747  -12.15474    2.32218
       H    19.02931  -13.63803    8.52942
       O    18.35179  -13.49263    7.91889
      H1    18.84073  -13.44780    7.05734
       H    15.62342  -13.59203    5.71060
       O    15.92275  -13.57829    4.75328
      H1    16.19968  -12.65120    4.60866
       H    14.62785  -10.48784    2.12520
       O    14.52467   -9.52216    1.94294
      H1    14.05375   -9.16494    2.65852
       H    18.18360   -4.74727    7.25292
       O    17.46715   -4.24880    6.90154
      H1    17.00374   -4.09797    7.73127
       H    16.87858   -8.66624    5.18131
       O    15.88744   -8.65015    5.25816
      H1    15.67324   -9.39615    5.85870
       H    12.71539   -6.30654   -0.92815
       O    13.24928   -5.48264   -0.87349
      H1    13.73803   -5.56999   -0.07771
       H    14.14174   -9.60576    7.88271
       O    13.87430  -10.33607    7.27942
      H1    13.66832  -11.05537    7.87989
       H    14.89418   -8.64237   -1.47614
       O    15.73711   -8.48395   -1.99086
      H1    16.04510   -7.69910   -1.51129
       H    15.92890   -3.65538    4.50589
       O    16.41916   -4.46278    4.51031
      H1    17.03805   -4.45679    5.23452
       H    18.81238  -15.39174    5.74887
       O    19.75624  -15.18100    5.87038
      H1    20.12754  -15.04636    4.93406
       H    16.18793   -3.86685    2.71619
       O    15.85051   -3.62930    1.84375
      H1    16.60200   -3.77211    1.21095
       H    19.31268   -4.75222    3.80706
       O    18.62706   -5.36582    3.41536
      H1    17.74840   -4.96351    3.65995
       H    18.51053  -11.15418    4.93654
       O    19.15177  -11.35396    5.67059
      H1    18.69956  -11.07703    6.44102
       H    14.33146   -5.06638    7.51633
       O    14.77147   -5.83751    7.92674
      H1    15.46804   -5.98447    7.29999
       H    15.26266   -6.22090    1.00033
       O    14.48620   -5.80570    1.53446
      H1    14.89900   -4.93998    1.79712
       H    17.96053   -2.70004    6.54249
       O    18.41422   -1.84306    6.40511
      H1    19.17766   -1.96539    5.79513
       H    19.16042   -8.42832    3.33219
       O    18.63809   -7.97697    4.05636
      H1    18.55563   -7.05540    3.74929
       H    19.29404   -5.57838    9.51315
       O    19.65374   -5.07362    8.77324
      H1    19.63386   -4.15527    8.98575
       H    17.94633  -11.67794    8.03424
       O    17.81383  -10.72668    8.17769
      H1    18.69640  -10.39894    8.37101
       H    17.10184   -6.02026    0.43283
       O    16.60141   -6.81233    0.22143
      H1    17.08415   -7.50656    0.75766
       H    17.23951  -10.71166   -1.78210
       O    17.92877  -10.76538   -1.10949
      H1    18.09891  -11.67726   -1.00154
       H    19.09674   -7.89690    9.48109
       O    19.04944   -7.44066   10.39302
      H1    18.14656   -7.62099   10.65348

