93
frame 10 | Written by MDAnalysis XYZWriter (release 2.4.3)
       H     7.26903    9.06484   10.59184
       O     7.10562    8.11929   10.53292
      H1     6.86948    7.86647    9.61966
       H     5.75874    2.58837   11.43561
       O     5.33350    1.72064   11.63058
      H1     5.13738    1.84644   12.57433
       H     2.99934    3.66040    9.84047
       O     3.15473    4.56369   10.18693
      H1     2.38769    4.66461   10.78716
       H     8.49798    2.34138   16.88914
       O     8.43202    2.00534   15.92819
      H1     7.50022    2.23210   15.66012
       H     5.83848    5.13515   17.93491
       O     5.50990    5.44229   17.02232
      H1     4.89983    4.75379   16.72375
       H    10.34173    3.02561   15.65620
       O    11.26136    2.88301   15.56600
      H1    11.51370    3.30173   14.75837
       H    13.20196    2.68621   13.20731
       O    12.59698    3.40858   13.13375
      H1    11.94619    3.19555   12.44676
       H     3.76700    6.41248   14.24836
       O     4.14178    7.20876   14.59437
      H1     3.30705    7.66340   14.77367
       H     9.23877    6.74910   16.32384
       O    10.12572    6.46325   16.12985
      H1     9.97457    5.93176   15.32850
       H     1.80231    5.39071   13.50414
       O     2.61804    4.97675   13.83912
      H1     2.25028    4.61122   14.66480
       H     6.85814    6.29019   16.14200
       O     7.55874    6.58545   15.57084
      H1     7.28113    6.20744   14.70744
       H     5.28768    7.39402   13.14678
       O     5.58930    6.96966   12.32526
      H1     6.27524    7.48169   11.82085
       H     3.25575   -0.16564   13.80225
       O     4.19954   -0.12782   13.95884
      H1     4.31385   -0.31539   14.90287
       H     7.39546    6.18549    7.46538
       O     6.98935    5.81207    8.25461
      H1     6.13659    6.22047    8.39902
       H     6.37555    1.40499   14.30463
       O     6.09304    2.31253   14.41796
      H1     5.24683    2.33921   14.88331
       H     6.28872    4.17681   14.09856
       O     6.67232    4.87677   13.53678
      H1     6.09367    5.61450   13.23545
       H    10.14343    6.79398   10.97175
       O     9.87875    7.57260   10.41836
      H1     8.95428    7.70847   10.60237
       H     6.30255   -0.93518    9.72283
       O     5.63493   -0.23643    9.76891
      H1     5.86811    0.37134   10.52058
       H     2.99228    2.47385   15.91248
       O     3.86783    2.79795   16.15889
      H1     3.94258    2.83504   17.06940
       H     7.10811   -0.82969   13.43493
       O     7.30780   -0.30596   14.18824
      H1     6.92158   -0.81195   14.87794
       H    11.01644    3.04456    9.76462
       O    11.19323    2.74320   10.67954
      H1    10.54869    2.07507   10.88948
       H     3.57649    8.94603   11.87511
       O     4.20852    9.57311   11.68071
      H1     4.85003    9.60272   12.42932
       H     9.77512    5.07144   13.04251
       O     9.45435    4.78655   13.93051
      H1     8.51718    4.67010   13.80105
       H     4.23441    5.77032    9.68098
       O     4.70770    6.63121    9.51771
      H1     5.02625    6.93708   10.40460
       H     5.17535    7.28935   17.27429
       O     5.29353    8.18077   17.65323
      H1     6.14908    8.53259   17.34891
       H    10.91958    4.75930   11.03051
       O    10.91568    5.44543   11.70226
      H1    11.78473    5.70972   11.95955
       H     3.55187    2.20723   12.00494
       O     2.70836    2.34223   12.46592
      H1     2.70079    3.32164   12.61540
       H     6.86028    8.84289   14.73546
       O     6.48928    9.51135   14.14192
      H1     7.10351    9.49204   13.42654
       H     8.94079    0.14477   14.34953
       O     9.88440    0.30959   14.52431
      H1     9.83215    1.19037   14.90968
       H     7.73745    2.56557    9.58640
       O     8.31337    1.86450    9.19899
      H1     7.95536    1.06485    9.62069
       H     6.81606    4.81932   10.33265
       O     7.22170    4.05725   10.77593
      H1     7.07162    4.25967   11.71669

