93
frame 11 | Written by MDAnalysis XYZWriter (release 2.4.3)
       H    12.51638    5.74541   16.39053
       O    12.00595    5.07487   16.85241
      H1    11.40056    4.67523   16.19296
       H    16.72344    7.09038   11.94602
       O    15.76630    7.17559   11.99346
      H1    15.38079    6.30828   12.28122
       H    19.13849    6.56171   17.12308
       O    19.73263    5.96640   16.69079
      H1    19.09742    5.32268   16.31879
       H    16.44829   11.84673   12.92121
       O    16.94497   11.79459   13.76624
      H1    17.63193   12.47766   13.73610
       H    19.08240    7.59371   11.00452
       O    18.56752    6.82342   11.16717
      H1    18.56764    6.37885   10.22198
       H    14.57887   12.26534   11.63470
       O    15.36687   11.66475   11.43272
      H1    15.44084   11.56811   10.41288
       H    16.27252    3.86812   14.06124
       O    15.94223    4.42945   14.75537
      H1    15.48104    3.89123   15.44246
       H    14.08513    9.67215   13.73996
       O    13.15889    9.82047   14.00427
      H1    12.70774    9.80468   13.14399
       H    14.67163    6.74298   18.42986
       O    15.49926    6.45544   18.02314
      H1    15.66454    6.99494   17.27376
       H    16.22562    8.59062    7.95755
       O    16.46379    7.76647    8.36021
      H1    15.63624    7.32554    8.58327
       H    18.34348    6.94360   18.86704
       O    17.82699    6.12139   19.18861
      H1    16.97725    6.18406   18.71645
       H    14.02884   12.56415   15.45451
       O    13.16515   12.20036   15.14651
      H1    13.34259   11.31707   14.85895
       H    15.44887    1.61048   19.09783
       O    15.98781    2.36272   18.84616
      H1    15.73588    2.52420   17.94421
       H    16.70266    2.58887   11.49398
       O    16.94531    2.77697   12.43739
      H1    17.93260    2.66049   12.40934
       H    18.46020    2.65480   18.09558
       O    18.68420    1.98031   17.42019
      H1    19.53132    1.63906   17.78044
       H    17.08099   13.81785   18.61481
       O    16.60922   13.00021   18.63870
      H1    16.08875   13.04068   17.81552
       H    14.26418    5.26205   13.61864
       O    14.02842    5.12773   12.71660
      H1    13.83334    4.17096   12.67386
       H    18.46785   10.93217   11.56705
       O    18.17622   11.65194   10.90947
      H1    17.26336   11.72418   11.20836
       H    14.04373    2.03241   16.11944
       O    14.15661    2.94119   16.47299
      H1    13.32397    3.37184   16.52195
       H    17.77781    7.99219   16.87463
       O    18.22417    8.32906   17.64906
      H1    17.67982    9.06045   17.95994
       H    11.67003    7.44799   15.02569
       O    12.40938    7.30209   14.40867
      H1    12.65938    8.23243   14.17813
       H    11.27834    5.17267   11.11360
       O    11.15319    5.75609   11.91532
      H1    12.03673    5.63008   12.26891
       H    16.66480    6.35753   15.31114
       O    16.85943    7.27180   15.62008
      H1    16.56492    7.86740   14.92578
       H    15.98802   12.82666   15.32657
       O    15.58294   13.24675   16.08745
      H1    15.65844   14.20651   15.96048
       H    12.64370   13.41519   12.03865
       O    13.50727   13.33121   12.49092
      H1    13.37002   12.80945   13.28023
       H    13.54627    6.61167    9.53738
       O    14.28717    6.00463    9.63065
      H1    14.84724    6.36665   10.35364
       H    15.74058    8.43317   12.99150
       O    15.71054    9.05729   13.76358
      H1    16.25321    9.79635   13.45272
       H    16.69474   11.11249   18.45025
       O    16.79631   10.24824   18.83389
      H1    15.91692    9.83340   18.78653
       H    11.24971   11.42604   14.95152
       O    10.45006   10.93839   14.82829
      H1    10.67710   10.03406   15.11727
       H    14.05523   10.30107   20.11071
       O    13.79816    9.75295   19.33846
      H1    13.75407    8.80871   19.63757
       H    18.70039    2.99797   15.83776
       O    18.79868    3.72543   15.20586
      H1    17.92933    4.08770   14.99654

