93
frame 10 | Written by MDAnalysis XYZWriter (release 2.4.3)
       H    -3.32067    4.58016   12.60245
       O    -3.42130    3.64775   12.25649
      H1    -4.16241    3.47259   12.90937
       H    -7.44020    2.53013   12.12835
       O    -7.20071    1.64789   12.34709
      H1    -6.51764    1.77429   12.95848
       H    -3.06655   -3.18739   11.93523
       O    -3.50828   -2.47742   12.37514
      H1    -2.84299   -1.83057   12.70601
       H    -1.36131    3.23905   13.59324
       O    -1.13900    3.12869   14.50968
      H1    -0.23808    2.76166   14.50359
       H    -3.02770    2.02971   17.90165
       O    -2.85095    2.95796   18.02360
      H1    -2.95890    3.46980   17.22071
       H    -1.60057    3.07080    9.69547
       O    -1.88175    3.15424    8.74403
      H1    -2.81788    3.04323    8.78452
       H    -1.36719   -0.58261   12.72467
       O    -1.63471   -0.87954   13.61027
      H1    -2.07727   -0.15416   14.01119
       H     1.80231    5.39071   13.50414
       O     2.61804    4.97675   13.83912
      H1     2.25028    4.61122   14.66480
       H    -7.81766    0.23554   15.24189
       O    -7.50195    0.89252   16.01699
      H1    -8.11522    1.64982   15.95250
       H     1.03303    1.04848   15.99168
       O     1.11479    1.97649   15.73604
      H1     0.76601    2.52995   16.43313
       H     0.91128   -3.20694   14.66984
       O    -0.06070   -2.97651   14.60438
      H1    -0.18191   -2.04040   14.42592
       H    -4.92055    5.87689   19.03972
       O    -4.86601    5.04558   19.56132
      H1    -4.65098    4.45209   18.82143
       H    -1.98160   -3.37598   15.36769
       O    -2.67181   -3.88807   15.72408
      H1    -2.57495   -4.65859   15.13879
       H     1.68262   -0.49681   15.36184
       O     1.24061   -0.59423   16.22608
      H1     1.96729   -0.65836   16.88311
       H    -5.12564   -2.82746   13.31497
       O    -5.78862   -3.36090   13.79177
      H1    -6.48852   -2.79193   14.06261
       H    -4.12752   -0.41554   17.60013
       O    -3.17950   -0.19214   17.36311
      H1    -2.81587   -1.03963   17.07681
       H    -1.74200    4.77733   15.63973
       O    -2.42947    5.23321   16.21353
      H1    -2.03548    5.99421   16.64615
       H    -1.11628    2.66264   18.35866
       O    -0.16425    2.76545   18.28694
      H1     0.22674    1.90344   18.57548
       H     1.84631    5.36751   17.79185
       O     1.03191    5.19908   17.24433
      H1     0.42636    4.81824   17.89605
       H     2.99228    2.47385   15.91248
       O     3.86783    2.79795   16.15889
      H1     3.94258    2.83504   17.06940
       H    -0.19714    5.99510   12.12659
       O     0.55322    6.13208   12.74860
      H1     0.15148    6.51187   13.59453
       H    -1.14052   -0.67189   10.68824
       O    -1.06380    0.05861   11.26493
      H1    -0.12555    0.23215   11.10662
       H     1.43044   -1.23508   12.81695
       O     1.56421   -0.50630   13.44107
      H1     1.47536    0.27028   12.86007
       H    -5.54290   -3.18555   15.81972
       O    -5.77075   -3.16516   16.74248
      H1    -5.81524   -2.25659   17.03987
       H    -2.44895    1.81783   14.94362
       O    -3.03094    0.98483   14.78377
      H1    -3.11138    0.57969   15.69778
       H    -3.01951    5.75841   14.59794
       O    -3.15716    6.16747   13.70573
      H1    -3.48890    7.08110   13.81555
       H     3.55187    2.20723   12.00494
       O     2.70836    2.34223   12.46592
      H1     2.70079    3.32164   12.61540
       H    -5.66367   -0.02260   18.84501
       O    -5.84621   -0.51729   18.02378
      H1    -6.20735    0.13024   17.42761
       H    -4.50954    1.82378   14.61925
       O    -5.21701    2.37340   14.19063
      H1    -5.64703    2.75276   14.93699
       H    -1.96846    3.45486   11.46609
       O    -1.16928    2.92543   11.32177
      H1    -1.31166    2.01947   11.59509
       H    -4.41568    2.62483   10.33124
       O    -4.59059    2.39498    9.37652
      H1    -5.05020    1.56456    9.28321

