93
frame 11 | Written by MDAnalysis XYZWriter (release 2.4.3)
       H     8.88386   -9.12350  -14.06750
       O     8.11310   -9.28327  -13.46528
      H1     8.02627  -10.27517  -13.47308
       H     6.33278   -5.12474  -13.08929
       O     7.11583   -4.97996  -12.59989
      H1     7.13531   -5.50663  -11.77281
       H     8.65265   -4.53389  -15.16860
       O     8.04370   -3.96524  -15.71964
      H1     7.36813   -3.58221  -15.18908
       H    10.31562   -9.14108  -10.61118
       O    11.09579   -8.86362  -10.16837
      H1    11.63625   -8.65157  -10.90218
       H     7.74986   -8.66614  -11.76235
       O     7.58354   -8.29764  -10.89583
      H1     8.16610   -7.56477  -10.71026
       H     4.59212  -12.93109  -13.65829
       O     3.70881  -12.82028  -13.20111
      H1     3.40876  -11.90765  -13.24566
       H     3.71085  -11.56252  -17.70156
       O     3.01106  -11.15778  -18.24286
      H1     2.18277  -11.61345  -18.17846
       H     7.60237   -6.03025  -18.69895
       O     6.97163   -6.52579  -19.21990
      H1     6.84940   -6.06584  -20.04901
       H     3.52326   -9.71523   -9.81743
       O     3.51491   -8.89052  -10.31303
      H1     4.28490   -8.33724  -10.11966
       H     5.94722   -5.84956  -17.83520
       O     5.27277   -5.36514  -17.29424
      H1     5.49939   -5.62773  -16.36399
       H    11.03526   -6.56087  -16.84260
       O    10.63145   -6.90430  -17.62978
      H1     9.96187   -6.32595  -17.97498
       H     9.22254   -8.68768  -16.13172
       O     9.85044   -8.49172  -15.41746
      H1     9.79548   -7.53768  -15.16883
       H     4.21984   -9.13753  -17.93299
       O     4.32372   -8.24030  -18.27591
      H1     5.20870   -7.88877  -18.13687
       H    11.66595   -8.60551  -15.69019
       O    12.55130   -8.29605  -15.50194
      H1    12.88638   -8.05632  -16.33092
       H    10.37938  -12.00693  -16.24571
       O    10.20663  -12.22131  -17.16199
      H1    10.81698  -12.96220  -17.29628
       H     6.75066   -8.76883  -14.76940
       O     6.12344   -8.30371  -15.32629
      H1     5.34642   -8.08518  -14.76026
       H     2.94596   -9.68215  -12.73506
       O     2.69078  -10.28354  -13.45908
      H1     1.74156  -10.12311  -13.52614
       H     6.99880   -9.19418  -16.78685
       O     7.88399   -9.49988  -17.12433
      H1     7.71245   -9.50929  -18.07829
       H     9.81747  -13.03333  -11.57496
       O    10.14196  -12.19650  -11.96197
      H1    10.82594  -12.41436  -12.60914
       H     6.57599  -11.30421   -8.82401
       O     6.93555  -10.47647   -8.69495
      H1     6.80283   -9.98973   -9.50972
       H    10.37545  -12.94211  -14.40097
       O    11.24958  -13.30950  -14.30313
      H1    11.82603  -12.53972  -14.35504
       H     3.25878   -7.42382  -14.69320
       O     3.96564   -7.33345  -14.00532
      H1     3.48864   -7.19502  -13.09883
       H     4.39680   -4.35834  -14.39078
       O     5.09247   -5.02778  -14.52377
      H1     4.61194   -5.84307  -14.53136
       H    10.26533   -5.58007  -13.59813
       O     9.39176   -5.70225  -14.12294
      H1     8.80749   -5.16874  -13.54492
       H     7.04679  -11.38709  -17.01432
       O     6.11274  -11.52925  -17.25017
      H1     5.88920  -12.44097  -16.91170
       H     5.99070  -14.06206  -14.79381
       O     6.31699  -13.54529  -14.04877
      H1     6.54805  -14.22746  -13.32397
       H     3.10837   -7.53871  -16.98781
       O     2.42912   -7.35571  -16.29228
      H1     2.42208   -6.39285  -16.23106
       H    10.85393   -8.82415  -18.04755
       O    11.06098   -9.69958  -18.40835
      H1    10.60464  -10.38227  -17.80507
       H     8.87598  -12.00307  -13.11560
       O     8.58129  -12.11722  -14.01652
      H1     7.68416  -12.61157  -13.94466
       H     5.69691   -6.79165   -8.88870
       O     5.45568   -6.91245   -9.81144
      H1     6.16317   -7.36411  -10.28097
       H     8.24623   -4.37378  -17.45631
       O     8.56756   -4.66427  -18.32473
      H1     9.15806   -4.01262  -18.65977

