93
frame 10 | Written by MDAnalysis XYZWriter (release 2.4.3)
       H   -12.09519    6.59004    8.25321
       O   -11.52373    5.99320    7.69074
      H1   -11.42578    6.62385    6.94357
       H    -6.44372   -4.63519    5.91773
       O    -7.19888   -4.36568    5.36890
      H1    -7.07896   -3.48504    5.00826
       H    -8.88433   -2.23187    2.01079
       O    -8.05553   -1.77625    1.95715
      H1    -8.16086   -0.92820    2.38770
       H   -13.55253    2.32042   10.34094
       O   -12.65189    2.35076   10.00378
      H1   -12.44483    1.57249    9.49425
       H    -6.10582   -1.13956    6.29765
       O    -5.28366   -1.11593    5.74894
      H1    -4.65152   -0.71455    6.31508
       H    -9.50012    4.15402    5.25881
       O    -9.07652    4.36223    4.37723
      H1    -8.30300    3.79086    4.19718
       H   -10.96043    3.00793    6.89939
       O   -10.00696    2.92011    6.71837
      H1    -9.48839    3.25678    7.41748
       H    -9.37186   -4.48081    7.43620
       O    -9.02440   -3.58728    7.25847
      H1    -8.39901   -3.86915    6.54702
       H   -10.64763    0.59738    2.93122
       O   -10.55564    1.33327    2.29725
      H1   -10.74532    0.86110    1.47088
       H   -11.46218   -1.15688    4.17936
       O   -10.64751   -0.84627    3.76214
      H1   -10.17457   -0.48505    4.54925
       H    -9.47077    1.68598    9.43984
       O    -9.42347    0.81997    9.83087
      H1    -9.42794    0.96259   10.79064
       H   -14.42573   -1.87108    5.25305
       O   -14.15862   -0.93542    5.35830
      H1   -15.01368   -0.47744    5.14363
       H    -7.66852   -3.16156    8.69473
       O    -7.35671   -3.49673    9.51313
      H1    -6.76242   -4.19128    9.15988
       H   -10.66149   -3.04698    6.75802
       O   -11.55693   -2.78215    6.46907
      H1   -11.73453   -3.31561    5.68779
       H    -5.27989    2.11893    2.19323
       O    -5.40841    1.92914    3.11207
      H1    -6.22763    1.33733    3.14124
       H    -6.04843    0.81145    5.70742
       O    -6.77529    1.26920    6.19066
      H1    -6.49596    2.15388    6.09519
       H    -8.61212    3.58147   10.01863
       O    -8.52933    3.62797    9.03684
      H1    -7.61041    3.88739    8.81847
       H    -9.76737    1.07720    6.30522
       O    -9.86713    0.09640    6.29603
      H1   -10.59634   -0.16059    6.91566
       H   -12.08216   -0.46631    8.11585
       O   -12.66947    0.17396    7.77721
      H1   -12.98452   -0.27570    6.98215
       H    -5.42398    3.72462    8.82034
       O    -5.98423    4.54191    8.69333
      H1    -5.90892    4.69007    7.74625
       H   -14.07590   -0.15235    8.81566
       O   -14.74719   -0.34027    9.49997
      H1   -15.42930   -0.85324    9.08399
       H   -11.64757    2.61065   11.19858
       O   -10.83436    2.62745   11.76773
      H1   -11.15083    3.14564   12.52800
       H    -8.21825    0.67866    4.51569
       O    -8.10653    0.57535    3.51803
      H1    -8.86094    1.03518    3.10961
       H   -10.13043    6.84813    8.63130
       O    -9.28618    6.61337    9.07902
      H1    -9.27998    5.67706    9.04736
       H    -7.17819   -0.06609    7.20976
       O    -7.34354   -0.87239    7.73917
      H1    -8.17116   -1.24609    7.41732
       H   -10.67675    4.04648    3.39793
       O   -11.35572    3.87601    2.72991
      H1   -11.51651    2.91414    2.81246
       H   -11.66220   -1.38257   10.43245
       O   -10.87695   -1.44329    9.87794
      H1   -10.48484   -0.53538    9.79146
       H    -6.08602    4.13246    5.35740
       O    -5.77772    3.76151    6.16693
      H1    -4.85873    3.75127    5.90598
       H    -6.60229   -0.08733    9.49959
       O    -5.92730    0.09788   10.11334
      H1    -6.49986    0.38007   10.84346
       H    -4.41568    2.62483   10.33124
       O    -4.59059    2.39498    9.37652
      H1    -5.05020    1.56456    9.28321
       H   -12.82584    4.62930    7.69499
       O   -13.24693    3.76736    7.78741
      H1   -12.86928    3.41099    8.59111

