93
frame 11 | Written by MDAnalysis XYZWriter (release 2.4.3)
       H    -4.05309   -3.22588   11.65053
       O    -4.29555   -2.42732   12.11349
      H1    -3.43486   -1.90233   12.10177
       H    -0.96342   -5.60303    5.96482
       O    -0.51012   -6.08888    6.66226
      H1    -1.03366   -6.91361    6.69827
       H    -4.77116   -1.80491    7.09988
       O    -4.22329   -1.42752    6.37027
      H1    -3.50870   -0.97867    6.87386
       H     2.94032   -3.66742    6.66369
       O     3.33381   -4.56815    6.56508
      H1     2.62246   -5.15171    6.86679
       H    -0.70807   -1.92512    2.95835
       O    -0.66754   -2.14890    3.86215
      H1    -0.31468   -1.35149    4.22368
       H    -3.99614   -5.63893   11.56296
       O    -3.77907   -4.88404   10.99202
      H1    -4.35195   -4.99017   10.17880
       H     0.96936   -7.56377   12.34184
       O     1.25283   -6.74223   12.81405
      H1     1.60069   -6.23787   12.08585
       H    -1.08124   -4.67678    7.76638
       O    -1.31250   -3.77957    7.95903
      H1    -0.66896   -3.22448    7.49111
       H    -2.59026   -7.96694   10.53170
       O    -1.74277   -7.47893   10.29275
      H1    -1.87023   -6.56167    9.95655
       H    -0.32709   -9.75423   12.44551
       O    -0.02731   -9.00064   11.89679
      H1    -0.75194   -8.59363   11.49253
       H     1.97834   -1.13578    8.96351
       O     2.01548   -0.64037    9.77907
      H1     1.85858    0.26372    9.60558
       H    -0.57980   -3.50636   12.22551
       O     0.39223   -3.36990   12.38529
      H1     0.44371   -3.52399   13.35911
       H    -2.01452   -8.51133    5.27676
       O    -1.98634   -8.60175    6.20763
      H1    -1.54965   -9.40950    6.41474
       H     3.12155   -5.01142   11.05341
       O     2.16304   -5.19156   10.77063
      H1     1.66621   -4.50461   11.19890
       H    -3.22078   -1.57867   10.01516
       O    -2.30733   -1.42254    9.78284
      H1    -2.01945   -2.15136    9.21507
       H     1.43596   -1.95291    7.06192
       O     0.54858   -2.03469    6.75233
      H1     0.39419   -1.26787    6.14537
       H    -5.66354   -2.73584    9.25128
       O    -5.05685   -2.11034    8.91635
      H1    -5.36151   -1.25279    9.15976
       H     4.39737   -8.34252    7.61496
       O     3.83363   -8.47432    8.39523
      H1     3.24043   -7.68414    8.32860
       H     0.91313   -9.03875    9.19936
       O     0.14396   -8.68854    8.72776
      H1    -0.49194   -8.43633    9.36473
       H    -3.93271   -9.14010    6.89402
       O    -4.81592   -9.54726    6.98992
      H1    -4.99939  -10.06883    6.19543
       H    -2.62875    0.84526    7.40183
       O    -2.10825    0.01488    7.35862
      H1    -2.23718   -0.38861    8.24068
       H    -5.93913   -5.49984    8.25506
       O    -5.91242   -5.72884    9.18433
      H1    -6.23165   -6.64375    9.25693
       H     3.37366   -1.04159    7.72115
       O     3.04953   -1.93767    7.74271
      H1     3.69658   -2.36335    8.33149
       H    -2.73085   -4.01497    6.82351
       O    -3.39885   -4.02137    6.03328
      H1    -3.69295   -3.08979    6.08128
       H     0.80694   -8.86453    6.54953
       O     0.88953   -9.68719    6.06583
      H1     1.61864  -10.18437    6.48846
       H    -0.77593   -3.86602    4.38547
       O    -1.28711   -4.69249    4.44436
      H1    -2.19745   -4.44004    4.61998
       H    -1.48807   -7.70333    3.29681
       O    -2.15517   -8.39460    3.44496
      H1    -2.94213   -7.84027    3.52926
       H    -0.86652   -0.88327   10.87101
       O    -0.25347   -0.25918   11.40428
      H1     0.54293   -0.41098   10.91365
       H     1.01660   -6.81177    8.14819
       O     1.82524   -6.39457    8.37617
      H1     1.72710   -5.77505    9.12304
       H    -4.90015   -4.77566    6.48548
       O    -5.75770   -5.31551    6.49765
      H1    -5.42236   -6.14690    6.19838
       H    -0.38292   -5.96670    3.50627
       O    -0.32118   -6.47871    2.68541
      H1     0.52683   -6.95114    2.66520

