93
frame 10 | Written by MDAnalysis XYZWriter (release 2.4.3)
       H    -7.92119  -17.62042  -11.69252
       O    -8.47221  -18.32815  -11.39285
      H1    -8.13706  -19.16512  -11.74049
       H    -4.23207  -14.94664  -11.17136
       O    -4.86636  -15.12408  -11.83882
      H1    -5.67516  -14.76558  -11.40289
       H    -8.22553  -18.72153  -14.86925
       O    -8.13905  -17.78721  -14.84986
      H1    -7.47968  -17.64946  -14.07745
       H    -4.38089  -13.53614  -14.52236
       O    -4.27394  -13.14767  -13.61646
      H1    -4.38691  -13.82304  -12.94280
       H     0.98854  -18.75897  -15.77064
       O     1.87158  -18.63694  -15.43567
      H1     2.14203  -19.53813  -15.19270
       H    -5.70111  -18.24765  -12.52285
       O    -6.04546  -17.41116  -12.86556
      H1    -5.54467  -16.74031  -12.40351
       H    -2.29175  -13.23285  -18.37790
       O    -2.10797  -12.55404  -19.07144
      H1    -1.71020  -13.03755  -19.84247
       H    -9.49413  -14.38164  -14.92478
       O    -9.56353  -13.60051  -14.29148
      H1    -8.88279  -13.77600  -13.63709
       H    -7.16159  -12.81353  -16.14352
       O    -6.84415  -12.14238  -15.49918
      H1    -7.07802  -12.41476  -14.62434
       H    -4.77226  -17.76776  -16.63281
       O    -4.80701  -16.86418  -16.17004
      H1    -5.38804  -17.12486  -15.44221
       H    -2.12521  -17.32318  -11.45318
       O    -2.64411  -17.79766  -10.72124
      H1    -2.22711  -17.52401   -9.89383
       H     0.11313  -14.10475  -15.00671
       O     0.43001  -14.92715  -15.37490
      H1     0.79138  -15.33186  -14.61771
       H     1.01803  -16.12782  -16.74832
       O     1.21643  -16.46767  -17.61725
      H1     0.71085  -17.25211  -17.67067
       H     1.72750  -17.34147  -14.20770
       O     1.41002  -16.70215  -13.55513
      H1     2.19922  -16.17283  -13.31819
       H    -2.61573  -16.76157  -18.01209
       O    -2.92435  -17.42138  -18.60842
      H1    -2.61652  -17.05998  -19.45103
       H    -6.08958  -12.72451  -13.27043
       O    -6.94863  -12.70516  -12.92342
      H1    -7.25667  -11.87872  -12.61299
       H    -4.27004  -15.18233  -16.12738
       O    -4.11079  -14.23846  -16.07090
      H1    -4.86016  -13.81460  -16.56499
       H    -3.79550  -12.02606  -19.20969
       O    -4.74199  -11.93697  -19.29355
      H1    -5.11916  -11.05525  -19.27979
       H    -0.65971  -16.46353  -13.02479
       O    -1.50150  -16.28335  -12.65716
      H1    -1.36718  -15.43947  -12.22660
       H    -4.29615  -10.63123  -15.32444
       O    -3.50563  -11.03482  -15.61994
      H1    -3.43684  -10.65896  -16.48774
       H    -0.86012  -15.29698  -16.95395
       O    -1.74690  -15.25850  -17.32771
      H1    -2.43439  -14.95570  -16.65370
       H   -10.42002  -17.28109  -18.29330
       O   -10.97364  -16.51465  -18.01340
      H1   -10.50160  -16.16967  -17.20178
       H    -8.06244  -14.71145  -11.09747
       O    -7.58923  -15.52671  -10.75342
      H1    -7.71537  -15.47298   -9.79023
       H    -8.50025  -14.96849  -16.70497
       O    -9.15173  -15.47716  -16.17638
      H1    -8.64618  -16.20076  -15.78852
       H    -6.20377  -15.79091  -19.06778
       O    -5.95889  -15.25311  -18.28590
      H1    -5.48349  -15.87718  -17.72583
       H    -0.87315  -19.35463  -16.09525
       O    -0.65627  -18.59460  -16.69706
      H1    -0.91649  -18.95455  -17.56192
       H   -11.00320  -16.24904  -14.23311
       O   -10.60528  -17.01534  -13.84242
      H1    -9.77417  -17.19534  -14.33531
       H    -0.34668  -12.13260  -15.62528
       O    -0.77226  -12.35975  -14.77485
      H1    -1.70251  -12.29216  -15.03890
       H    -4.27125  -18.74086  -10.07565
       O    -5.10194  -19.19654   -9.85377
      H1    -5.62407  -18.53566   -9.31474
       H    -6.88306  -13.75761  -18.34576
       O    -7.48924  -13.11186  -17.94201
      H1    -6.99049  -12.31792  -17.95342
       H   -10.28444  -19.57326  -17.06322
       O   -10.38370  -19.30311  -17.98447
      H1    -9.58717  -19.61123  -18.40149

