93
frame 11 | Written by MDAnalysis XYZWriter (release 2.4.3)
       H   -16.66800   14.04404   19.18439
       O   -16.21216   13.19214   19.00502
      H1   -15.66411   12.88515   19.71691
       H   -11.75211   13.70542   14.10461
       O   -11.90955   12.79234   13.96264
      H1   -11.14280   12.42950   13.61072
       H   -10.16593   19.28039   16.65098
       O   -10.22935   18.33497   16.66103
      H1    -9.83635   18.03032   15.82143
       H   -12.13064   14.68460   18.66034
       O   -11.27533   14.24255   18.56825
      H1   -10.66673   14.97366   18.74839
       H   -13.60049   11.97797   16.74658
       O   -13.85955   12.47171   15.93348
      H1   -13.03687   12.52024   15.38547
       H   -15.66062   13.36729   15.03029
       O   -16.29879   13.93770   14.58478
      H1   -16.98501   14.04674   15.23487
       H   -13.89047   16.93192    8.98415
       O   -14.76716   17.36324    9.29441
      H1   -14.58029   17.81743   10.11246
       H    -9.54564   17.15731   18.18237
       O    -9.10805   16.52066   18.73724
      H1    -8.62290   15.95086   18.08229
       H   -17.82350   17.29087    9.40806
       O   -18.21742   18.07506    9.67256
      H1   -19.12604   17.99003    9.37781
       H   -18.59766   18.12946   17.79670
       O   -18.86790   17.96291   16.85945
      H1   -17.98417   17.84662   16.45171
       H   -13.67344   18.31294   17.00202
       O   -14.10808   19.16109   17.01300
      H1   -13.65288   19.62340   16.35522
       H   -11.72521   17.74449   16.81388
       O   -12.52855   17.16087   16.78053
      H1   -12.58464   16.73678   17.64849
       H   -15.20385   17.71807   16.35717
       O   -15.99249   17.12173   16.22190
      H1   -15.83800   17.05271   15.29603
       H   -16.06241    7.85466   17.82213
       O   -15.82052    8.68644   18.24871
      H1   -15.81930    9.37643   17.51885
       H   -13.56633   16.07447   14.22022
       O   -14.45595   15.90636   13.79553
      H1   -14.81945   15.29893   14.39848
       H   -16.74533   10.36847   14.56721
       O   -17.58180   10.83641   14.59340
      H1   -17.64723   11.25642   15.46565
       H   -17.43850    9.06827   18.82315
       O   -18.35895    9.03792   19.17439
      H1   -18.98413    9.20748   18.47112
       H   -16.27431   12.45138   11.78401
       O   -16.80790   11.61471   11.86072
      H1   -17.21895   11.76149   12.75146
       H   -13.85192   17.21086   12.02260
       O   -14.16114   18.11141   11.80155
      H1   -13.49788   18.77179   11.97506
       H   -10.96305   15.93165   14.13961
       O   -11.66114   15.50426   14.62378
      H1   -11.78748   16.05593   15.43008
       H   -14.32420   14.66279   18.63050
       O   -13.79261   15.34347   19.03992
      H1   -14.28666   16.11423   19.21022
       H   -19.65684   19.21761   19.63760
       O   -18.82413   18.78473   19.40487
      H1   -18.25059   19.49067   19.04716
       H   -15.42072   18.52230   13.13844
       O   -16.03288   18.78210   13.86711
      H1   -16.90218   18.43530   13.60387
       H   -14.71590   14.36726   11.66890
       O   -15.46948   14.03149   11.17347
      H1   -16.16452   14.76515   11.14916
       H   -17.31208   14.70830   13.09927
       O   -18.07789   14.87327   12.55652
      H1   -18.26011   15.83675   12.46554
       H   -19.39580   15.45674   16.22199
       O   -18.78144   14.74563   16.43237
      H1   -18.46956   15.05922   17.35002
       H   -17.09882   12.67447   17.48150
       O   -17.84072   12.25453   17.04276
      H1   -18.40238   12.99411   16.71381
       H   -17.12434   15.95221   19.25485
       O   -17.83709   15.36694   19.03963
      H1   -18.44471   15.41475   19.77688
       H   -10.96898   12.45158   19.20146
       O   -10.29104   11.96688   19.71959
      H1   -10.45222   11.05600   19.61424
       H   -18.36039   18.02230   11.47404
       O   -18.45794   17.97608   12.43452
      H1   -18.73385   18.86518   12.64007
       H   -19.05083   14.35723   10.96648
       O   -19.58942   14.10474   10.25688
      H1   -20.14478   13.49588   10.72219

