93
frame 10 | Written by MDAnalysis XYZWriter (release 2.4.3)
       H    -2.11055  -16.95502   15.30092
       O    -1.53402  -17.61655   14.91749
      H1    -1.68963  -18.43518   15.38138
       H    -6.21831  -16.77008   12.99848
       O    -6.25355  -15.84425   13.25290
      H1    -5.52761  -15.39161   12.72739
       H    -6.96224  -16.99381   19.05013
       O    -7.79869  -16.54782   19.15590
      H1    -7.92216  -16.03184   18.30357
       H   -11.12034  -15.18574   19.89171
       O   -10.80406  -14.51294   19.23564
      H1   -10.66166  -13.63278   19.70900
       H    -9.06383  -14.35987   18.06343
       O    -8.52675  -14.65050   17.37933
      H1    -7.97955  -13.85257   17.23972
       H    -5.89379  -19.48070   13.89248
       O    -5.99444  -18.84249   13.20738
      H1    -6.78849  -19.17632   12.73786
       H    -7.77454  -11.59687   13.50885
       O    -7.68283  -12.19449   14.35030
      H1    -8.57444  -12.22271   14.69617
       H    -4.60296  -13.76334   17.46159
       O    -4.57381  -14.69806   17.79302
      H1    -4.95443  -14.69844   18.64801
       H    -3.72762  -11.79227   17.79410
       O    -4.10585  -12.09057   16.94031
      H1    -3.36046  -12.49882   16.46428
       H    -1.39107  -16.29373   18.15278
       O    -2.34350  -16.36242   17.95625
      H1    -2.71153  -15.41835   17.74011
       H    -0.83252  -14.39213   18.08462
       O    -1.13490  -13.48931   17.88054
      H1    -0.40364  -13.06049   17.55015
       H    -4.00740  -10.97160   15.39404
       O    -4.20785  -10.24398   14.79035
      H1    -3.35165  -10.17037   14.32521
       H    -3.75077  -16.17200   11.36274
       O    -3.49700  -15.66474   12.10340
      H1    -2.96554  -16.17318   12.67941
       H     0.18319  -10.57800   16.19564
       O     0.14384   -9.66481   15.90819
      H1    -0.45108   -9.21639   16.51654
       H    -5.65441   -7.94955   17.80913
       O    -5.59085   -8.88426   17.97671
      H1    -5.87745   -9.33829   17.11191
       H    -8.55549  -15.74897   15.68038
       O    -8.94072  -16.10006   14.88960
      H1    -8.21534  -16.00233   14.26247
       H    -5.13889  -17.44899   17.60556
       O    -5.26427  -17.58372   18.59083
      H1    -4.45355  -17.32718   19.02985
       H    -5.67740  -18.89821   15.73360
       O    -5.37678  -19.76000   16.07086
      H1    -4.42093  -19.84414   15.84409
       H     0.15847  -15.96221   19.73301
       O     0.15093  -15.73041   18.76020
      H1     1.01285  -16.04187   18.40418
       H    -4.83004  -12.00229   11.46974
       O    -5.15476  -11.26731   12.04846
      H1    -4.83043  -11.58864   12.85657
       H    -2.50866   -8.66572   18.75952
       O    -3.11357   -9.40160   19.02302
      H1    -3.94403   -9.06443   18.70257
       H    -0.25665  -12.80535   12.44858
       O    -1.20386  -12.72965   12.57329
      H1    -1.46037  -13.37224   11.91427
       H    -6.18278   -9.41423   14.71356
       O    -6.68530   -9.00883   15.40605
      H1    -7.60614   -9.04166   15.05714
       H   -10.18271  -16.25918   17.63650
       O   -10.46603  -16.99993   17.12021
      H1   -10.02148  -16.86739   16.29190
       H    -8.96779  -13.83199   11.61463
       O    -8.36623  -14.62234   11.54371
      H1    -7.99523  -14.83938   12.39830
       H    -6.18717  -12.16054   17.32873
       O    -7.05026  -12.21869   17.01294
      H1    -7.06975  -12.08920   16.09213
       H    -5.40204  -15.73142   16.64263
       O    -5.65025  -16.50914   16.13589
      H1    -5.70139  -16.21328   15.23672
       H     1.48690  -16.91345   13.86469
       O     1.20349  -17.09861   14.77248
      H1     0.21218  -17.18615   14.75993
       H    -9.94606  -10.50161   17.43550
       O    -9.49767  -11.22615   17.87506
      H1    -8.57714  -11.32868   17.59865
       H    -1.62658  -13.36402   14.36025
       O    -2.15695  -13.64432   15.13043
      H1    -1.56434  -13.68523   15.88604
       H     1.29784  -12.92435   15.98325
       O     1.08830  -12.23189   16.70233
      H1     2.03323  -12.02788   16.89967

