93
frame 10 | Written by MDAnalysis XYZWriter (release 2.4.3)
       H   -12.16761  -12.33249   13.13571
       O   -12.32590  -13.18129   12.62498
      H1   -13.17774  -13.57844   12.89377
       H   -12.04533   -9.06249   18.39943
       O   -12.92191   -8.97355   18.83233
      H1   -13.07667   -8.04825   18.65584
       H    -6.96224  -16.99381   19.05013
       O    -7.79869  -16.54782   19.15590
      H1    -7.92216  -16.03184   18.30357
       H   -14.26045   -9.32467   15.33062
       O   -14.48569  -10.30931   15.24904
      H1   -14.41423  -10.60248   16.14897
       H   -10.42837   -5.04021   18.78955
       O   -11.10421   -5.43415   19.38035
      H1   -10.58266   -6.28391   19.65065
       H   -11.12034  -15.18574   19.89171
       O   -10.80406  -14.51294   19.23564
      H1   -10.66166  -13.63278   19.70900
       H   -10.20287   -8.23842   17.48413
       O   -10.73194   -8.85570   16.93713
      H1   -10.37432   -8.76414   15.99423
       H    -9.06383  -14.35987   18.06343
       O    -8.52675  -14.65050   17.37933
      H1    -7.97955  -13.85257   17.23972
       H   -14.09516  -11.76105   18.69477
       O   -13.94626  -11.93530   17.77505
      H1   -13.24954  -12.55471   17.66365
       H    -8.45741  -10.60800   11.48365
       O    -8.02485  -10.43114   12.28694
      H1    -7.08682  -10.53794   12.06562
       H    -7.77454  -11.59687   13.50885
       O    -7.68283  -12.19449   14.35030
      H1    -8.57444  -12.22271   14.69617
       H    -4.60296  -13.76334   17.46159
       O    -4.57381  -14.69806   17.79302
      H1    -4.95443  -14.69844   18.64801
       H    -3.72762  -11.79227   17.79410
       O    -4.10585  -12.09057   16.94031
      H1    -3.36046  -12.49882   16.46428
       H   -13.04252  -10.56038   14.14821
       O   -12.18343  -10.83072   13.82938
      H1   -12.00228  -10.30684   13.01917
       H   -11.95835  -14.51941   16.23379
       O   -12.34147  -14.20889   17.08340
      H1   -11.67779  -14.30603   17.77537
       H    -7.15834   -7.29124   15.06112
       O    -6.83237   -6.38203   15.05358
      H1    -7.62664   -5.90333   14.68883
       H    -4.00740  -10.97160   15.39404
       O    -4.20785  -10.24398   14.79035
      H1    -3.35165  -10.17037   14.32521
       H    -5.65441   -7.94955   17.80913
       O    -5.59085   -8.88426   17.97671
      H1    -5.87745   -9.33829   17.11191
       H    -8.55549  -15.74897   15.68038
       O    -8.94072  -16.10006   14.88960
      H1    -8.21534  -16.00233   14.26247
       H    -4.83004  -12.00229   11.46974
       O    -5.15476  -11.26731   12.04846
      H1    -4.83043  -11.58864   12.85657
       H   -10.76510  -11.37052   14.81190
       O   -10.18189  -11.95416   15.32386
      H1   -10.20419  -11.63907   16.26903
       H    -2.50866   -8.66572   18.75952
       O    -3.11357   -9.40160   19.02302
      H1    -3.94403   -9.06443   18.70257
       H   -11.48851  -14.30004   13.83236
       O   -11.46161  -15.03783   14.42844
      H1   -10.50228  -15.09804   14.62759
       H    -6.18278   -9.41423   14.71356
       O    -6.68530   -9.00883   15.40605
      H1    -7.60614   -9.04166   15.05714
       H   -10.18271  -16.25918   17.63650
       O   -10.46603  -16.99993   17.12021
      H1   -10.02148  -16.86739   16.29190
       H    -9.20760   -7.35957   13.85685
       O    -9.16051   -8.30849   14.09757
      H1    -8.76781   -8.83901   13.36992
       H    -8.52237   -5.35596   17.26997
       O    -7.94017   -6.05949   17.54886
      H1    -7.33398   -5.96268   16.83502
       H    -6.18717  -12.16054   17.32873
       O    -7.05026  -12.21869   17.01294
      H1    -7.06975  -12.08920   16.09213
       H    -3.91094   -7.07877   16.56548
       O    -3.43162   -7.65580   15.89995
      H1    -3.90896   -8.51630   15.72014
       H    -5.40204  -15.73142   16.64263
       O    -5.65025  -16.50914   16.13589
      H1    -5.70139  -16.21328   15.23672
       H    -9.94606  -10.50161   17.43550
       O    -9.49767  -11.22615   17.87506
      H1    -8.57714  -11.32868   17.59865

