93
frame 0 | Written by MDAnalysis XYZWriter (release 2.4.3)
       H    -7.39464   -8.69981  -16.54436
       O    -7.44619   -9.49237  -17.10123
      H1    -7.50155   -9.28217  -18.03562
       H   -12.80534  -12.62668  -17.59042
       O   -12.20955  -12.43963  -16.83394
      H1   -11.66190  -13.21151  -16.78660
       H    -9.80908  -15.11419  -16.89010
       O   -10.47930  -14.44265  -16.64703
      H1   -10.06904  -13.89852  -15.92131
       H    -9.27032   -4.90428  -16.13225
       O    -9.67784   -5.74857  -15.75865
      H1   -10.05410   -6.13720  -16.57285
       H    -6.21436  -11.36417  -11.60552
       O    -6.13655  -11.10326  -12.52338
      H1    -5.26809  -10.66824  -12.49483
       H   -10.29707  -14.82553  -12.53074
       O   -10.12171  -14.49789  -11.60649
      H1    -9.85828  -13.56558  -11.75780
       H   -12.70572  -11.35351  -13.17200
       O   -11.75836  -11.33279  -12.94533
      H1   -11.27648  -11.76631  -13.62665
       H   -12.60179   -5.56523  -10.72816
       O   -13.07536   -4.83854  -10.30646
      H1   -12.40491   -4.39330   -9.67491
       H   -14.09466   -9.35246  -10.74833
       O   -14.82940   -9.98949  -10.63524
      H1   -15.62674   -9.42365  -10.77848
       H   -11.09754   -5.47867  -18.24813
       O   -11.04102   -6.43415  -18.00453
      H1   -11.06439   -6.95522  -18.87354
       H    -9.80078  -10.46626   -9.68108
       O    -9.10853  -10.68112   -9.06155
      H1    -9.51107  -11.17330   -8.27638
       H   -13.88102   -8.32380  -15.59420
       O   -14.43979   -8.58008  -14.83865
      H1   -15.39275   -8.58165  -15.10214
       H    -9.08934  -12.58334  -14.48933
       O    -9.99248  -12.45181  -14.81109
      H1    -9.91149  -11.83048  -15.54537
       H   -12.64960  -10.43489  -16.89672
       O   -12.42372   -9.49220  -16.89258
      H1   -11.52197   -9.38879  -16.52810
       H   -14.57345  -10.24522  -13.87781
       O   -14.51235  -11.00493  -13.36812
      H1   -14.84235  -10.70501  -12.52801
       H   -12.53787   -9.44564   -9.20777
       O   -12.51630   -8.54244   -9.51482
      H1   -13.02108   -8.07734   -8.88639
       H   -12.25954   -6.10441  -13.77433
       O   -11.92679   -5.26005  -14.11870
      H1   -11.18589   -5.51863  -14.68227
       H   -11.55335   -7.40333  -10.38683
       O   -10.90489   -6.93453  -10.93831
      H1   -11.43087   -6.91588  -11.79564
       H    -6.88614  -13.57278  -14.79239
       O    -7.49040  -13.11574  -14.20429
      H1    -6.92765  -12.62584  -13.57768
       H    -7.37891   -9.44734  -11.88261
       O    -7.98030   -8.71404  -12.06353
      H1    -7.47074   -7.95154  -12.40702
       H    -7.88193   -8.02076  -10.42423
       O    -7.45833   -7.79679   -9.57027
      H1    -7.54046   -6.85433   -9.41398
       H    -6.60237   -6.55864  -17.15682
       O    -7.05235   -6.83446  -16.35440
      H1    -7.83549   -6.22314  -16.21393
       H   -14.07814   -5.31646  -17.52894
       O   -13.94830   -6.20682  -17.03247
      H1   -13.02499   -6.48979  -17.14710
       H   -11.74080  -11.88384  -11.29198
       O   -11.58319  -12.04929  -10.32017
      H1   -11.40373  -12.99179  -10.17499
       H   -13.48430   -7.89990  -13.46687
       O   -12.68594   -7.63919  -12.97296
      H1   -12.01231   -8.31927  -13.24322
       H    -9.25120   -4.73379   -8.75309
       O   -10.10222   -5.15348   -8.97922
      H1    -9.94300   -5.79948   -9.64593
       H    -4.64969   -6.43767  -15.34713
       O    -4.74069   -6.91537  -14.48767
      H1    -5.68367   -6.89654  -14.34628
       H    -7.53685   -5.53894  -12.59076
       O    -7.38932   -6.21038  -13.29618
      H1    -8.21426   -6.24398  -13.77370
       H    -8.72359  -11.86971  -17.80307
       O    -9.53270  -11.33109  -17.79652
      H1    -9.24343  -10.55807  -17.39018
       H    -7.32232  -13.01399   -9.83426
       O    -7.24414  -12.13615  -10.16105
      H1    -7.99556  -11.63186   -9.78944
       H   -10.88548   -9.92870  -13.46711
       O   -10.40507   -9.19082  -13.88144
      H1    -9.61824   -9.06891  -13.26755

