96
frame 1 | Written by MDAnalysis XYZWriter (release 2.4.3)
       H    -5.15381   -8.61798    5.08785
       O    -5.66743   -7.93810    4.61438
      H1    -6.59773   -8.24086    4.82007
       H    -7.18284   -8.13918    2.13033
       O    -8.10411   -7.83407    2.01475
      H1    -8.20166   -7.94300    1.01972
       H    -6.87338   -8.77101    9.06116
       O    -7.72501   -8.88233    9.50668
      H1    -8.10051   -9.74527    9.19904
       H    -6.80248   -5.30394    5.59838
       O    -7.77618   -5.25442    5.71983
      H1    -8.10351   -4.98426    4.87972
       H    -9.68960   -1.54531    2.34684
       O    -8.68650   -1.64795    2.28572
      H1    -8.51554   -0.91400    2.87431
       H    -9.51691   -7.90175    3.07864
       O   -10.08085   -8.04974    3.86603
      H1   -10.71122   -8.73393    3.51610
       H    -9.86178   -4.49237    2.55134
       O    -9.30411   -4.11729    3.26168
      H1    -8.93043   -3.30601    2.94032
       H    -4.80048   -9.55769    6.91253
       O    -4.33907   -9.72246    6.06768
      H1    -4.63832  -10.55893    5.64576
       H   -10.38531   -3.26196    4.49635
       O   -11.04905   -2.83737    4.94717
      H1   -11.44561   -3.64347    5.33713
       H    -3.56961   -5.93131    8.05496
       O    -3.46447   -6.86350    8.45773
      H1    -2.84903   -7.38391    7.91171
       H    -4.96524   -6.32950    5.00598
       O    -4.98829   -5.43324    5.27255
      H1    -4.78073   -4.95386    4.45654
       H    -8.39342   -3.27639    6.03289
       O    -8.87050   -2.62739    6.54234
      H1    -9.78540   -2.63283    6.26484
       H    -4.73907   -0.92710    7.23262
       O    -5.58280   -1.29417    6.96365
      H1    -6.21733   -0.57005    7.18364
       H   -10.02243  -11.46514    6.29091
       O   -10.02301  -10.57533    6.66307
      H1    -9.39659  -10.02000    6.17500
       H    -7.64827   -9.99007    4.87129
       O    -7.94014   -9.09591    5.23784
      H1    -8.65931   -8.74972    4.71419
       H    -9.19247   -6.21499    6.79772
       O   -10.08397   -6.56224    6.65215
      H1   -10.02426   -6.75346    5.73821
       H    -8.11568   -1.90819    9.61637
       O    -7.87695   -2.86308    9.53016
      H1    -7.05740   -3.01479    9.09972
       H   -11.97174   -8.20906    6.97029
       O   -12.81483   -8.21689    6.57138
      H1   -12.78236   -7.61193    5.80077
       H    -8.32826    0.18872    5.17911
       O    -8.51351    0.21739    4.23454
      H1    -8.00876    1.05981    4.03575
       H    -4.62617   -8.06724    8.38292
       O    -5.35089   -8.69563    8.26131
      H1    -5.03109   -9.43508    8.82103
       H   -11.59402   -5.48093    1.23948
       O   -10.95465   -4.76810    1.28697
      H1   -10.34492   -5.03207    0.54561
       H    -4.57876   -1.43181    5.22148
       O    -3.83839   -1.02977    4.70379
      H1    -3.05137   -1.23520    5.26872
       H    -5.76890   -4.59270    2.03910
       O    -4.96090   -4.26669    2.43318
      H1    -4.88788   -3.38537    2.09778
       H    -3.63501   -4.54428    6.43037
       O    -3.02679   -4.42575    7.19083
      H1    -3.44728   -3.60912    7.63118
       H   -11.94659   -7.14015    3.69474
       O   -12.67137   -6.82314    4.30136
      H1   -13.50982   -7.07275    3.82539
       H    -8.54132    0.44995    7.40804
       O    -7.87438   -0.08403    6.93938
      H1    -8.19230   -0.99529    6.99787
       H    -5.69225   -2.80703    7.82710
       O    -5.72996   -3.70751    8.25762
      H1    -5.92486   -4.31795    7.55041
       H    -5.52776   -9.94433    2.05369
       O    -5.35468   -9.03201    2.10298
      H1    -5.43480   -8.71976    3.01293
       H    -9.64073   -8.34954    9.15952
       O   -10.54424   -7.98262    9.12072
      H1   -10.41347   -7.41813    8.32246
       H   -11.26320   -5.28711    7.01273
       O   -12.13859   -4.85679    7.23218
      H1   -11.89874   -4.22066    7.91492
       H   -10.90676   -2.71021    9.65985
       O   -10.80779   -2.89140    8.72719
      H1    -9.85321   -2.94127    8.56110
       H    -7.67171   -5.83842    1.57123
       O    -7.02689   -5.28701    1.06902
      H1    -6.31164   -5.88079    0.81752

