96
frame 1 | Written by MDAnalysis XYZWriter (release 2.4.3)
       H     3.95783   13.83248  -19.95153
       O     3.21434   13.24453  -19.76485
      H1     2.84272   13.60947  -18.95460
       H    -5.93324   11.15843  -13.83554
       O    -6.21502   11.93256  -13.31119
      H1    -6.53002   11.42512  -12.49809
       H    -6.73384   13.95164  -15.41081
       O    -6.59848   13.90429  -16.38411
      H1    -5.68956   14.20592  -16.53023
       H     4.35575   16.66243  -14.97560
       O     3.89225   16.54308  -15.85384
      H1     3.29726   17.32574  -15.99264
       H     0.04875   15.67708  -12.51798
       O     0.66962   15.86977  -13.21095
      H1     1.30238   15.18304  -13.14203
       H    -3.78431   15.86537  -17.88874
       O    -3.89050   14.95136  -17.51700
      H1    -4.29910   14.51614  -18.30710
       H    -5.83229    7.28556  -17.21175
       O    -5.77125    8.23996  -17.40152
      H1    -5.50319    8.65791  -16.56879
       H    -0.83316   18.68493  -15.63315
       O    -1.55932   18.20707  -16.05242
      H1    -1.42744   17.23731  -15.83941
       H    -0.35791   12.06515  -14.21449
       O    -0.10824   12.87721  -13.75652
      H1    -0.12218   13.51995  -14.42086
       H    -0.94583    7.65428  -17.92272
       O    -0.79095    8.00615  -17.03855
      H1    -0.95899    8.97256  -17.05724
       H     1.86199    9.43803  -18.50739
       O     1.55757   10.13837  -19.11971
      H1     2.02778    9.89656  -19.94427
       H    -0.31706   10.59635  -15.60161
       O    -0.82096   10.43892  -14.83108
      H1    -1.69970   10.43519  -15.21121
       H    -6.06568   17.48115  -17.81409
       O    -6.42095   18.18410  -17.27488
      H1    -6.69030   18.89501  -17.88947
       H     1.67644   13.57908  -16.79472
       O     2.08835   14.23969  -17.35338
      H1     2.37753   14.92904  -16.78076
       H    -5.39044    8.86316  -14.53611
       O    -6.11724    9.48835  -14.60740
      H1    -6.89318    8.91002  -14.48176
       H     0.16719   11.70309  -11.23454
       O    -0.76613   11.54022  -11.49396
      H1    -0.87083   12.19605  -12.23777
       H    -1.57332   13.03252  -18.18889
       O    -1.53222   12.89865  -17.22630
      H1    -1.81021   13.74824  -16.78399
       H     1.37575    8.52870  -16.69174
       O     2.29448    8.71801  -16.92909
      H1     2.70504    9.22016  -16.17861
       H     4.13803    9.92123  -14.63303
       O     3.23043   10.13169  -14.96127
      H1     2.62922   10.01267  -14.21421
       H     3.28557   12.93559  -16.44253
       O     3.62102   12.83322  -15.55992
      H1     3.53907   11.87590  -15.34600
       H    -7.71713   12.83396  -19.12310
       O    -7.14483   12.21226  -18.66584
      H1    -6.91381   12.69890  -17.90028
       H    -3.36700   18.38448  -18.34729
       O    -3.55541   17.65656  -19.01741
      H1    -2.68881   17.22860  -19.24650
       H     1.72283   18.65080  -16.89048
       O     2.43783   18.98712  -16.32034
      H1     3.01110   19.20876  -17.11094
       H    -2.62456   15.29848  -15.98058
       O    -1.81969   15.08292  -15.51420
      H1    -2.11306   15.17553  -14.62389
       H     0.09868   17.70565  -18.90877
       O    -0.00268   18.38396  -18.20662
      H1    -0.75776   18.19868  -17.64333
       H    -2.11494    6.72122  -19.42294
       O    -1.15341    6.63046  -19.42267
      H1    -0.91457    5.70675  -19.40429
       H     2.67060   13.73762  -13.84690
       O     2.38876   13.73771  -12.88489
      H1     1.50846   13.27407  -12.89422
       H    -3.18469    8.16735  -13.64556
       O    -3.94305    7.75571  -14.09597
      H1    -3.60389    6.95458  -14.46127
       H    -2.20315   16.42437  -11.93000
       O    -2.69498   16.20449  -12.71058
      H1    -3.57611   16.34883  -12.37787
       H    -0.77802    8.59105  -12.81412
       O    -1.74143    8.71489  -12.57090
      H1    -1.81733    9.67807  -12.32392
       H     0.02271   12.23126  -16.95381
       O     0.80285   11.65270  -16.94288
      H1     0.85103   11.26466  -17.87055
       H    -3.42109    9.99419  -17.33529
       O    -3.10432   10.51146  -16.62585
      H1    -2.62166   11.23089  -17.07221

