96
frame 0 | Written by MDAnalysis XYZWriter (release 2.4.3)
       H   -15.62524    7.98817   11.31917
       O   -15.55898    7.56512   12.15701
      H1   -16.34479    7.13366   12.33320
       H   -19.29496    4.31055    9.59294
       O   -19.35954    4.74215   10.44178
      H1   -18.88895    4.08561   10.95622
       H   -18.50897   14.41114   11.04354
       O   -17.95091   13.71812   10.60643
      H1   -18.47999   13.35567    9.84475
       H   -16.10579    6.04710    7.82897
       O   -15.38170    5.36409    7.95221
      H1   -14.84145    5.47625    8.77157
       H   -18.66085   12.46746    4.54428
       O   -18.68849   12.00830    5.39420
      H1   -18.96429   12.62424    6.07469
       H   -11.76469    8.33872    9.81755
       O   -11.22224    8.74535   10.48871
      H1   -11.70375    8.47562   11.32651
       H   -16.87246    3.42592    7.56247
       O   -17.18463    2.62296    7.17078
      H1   -17.96190    2.35766    7.61878
       H   -11.70977   10.35120    9.82615
       O   -12.05047   11.18092    9.50916
      H1   -11.35532   11.81547    9.69325
       H   -12.02624    8.51108   13.51351
       O   -12.54992    8.55008   12.71025
      H1   -12.92139    7.65221   12.54179
       H   -13.87888    5.24303   11.37488
       O   -13.98749    4.72683   10.56929
      H1   -14.15779    3.87802   10.94098
       H   -13.64542   11.23461    8.96952
       O   -14.51755   10.99662    8.52547
      H1   -15.02229   11.83210    8.45226
       H   -17.68793    4.98537   15.20450
       O   -16.90388    4.59271   14.74031
      H1   -16.94725    3.74078   15.14838
       H   -15.31272    9.49333    9.11451
       O   -15.90403    8.77574    9.27010
      H1   -16.68660    9.33571    9.41358
       H   -18.91267    2.58080   13.17800
       O   -18.37862    3.22041   12.67449
      H1   -17.86132    3.67537   13.36530
       H   -20.20588    7.14016    3.54040
       O   -19.59528    7.49163    4.22927
      H1   -18.74139    7.49612    3.67047
       H   -12.76145    7.83666    7.35806
       O   -12.14618    7.70825    8.07969
      H1   -12.12732    6.71149    8.17834
       H   -15.93477    9.04206   13.41818
       O   -15.90654    9.51204   14.27656
      H1   -16.52732   10.23888   14.29391
       H   -17.37439    8.47011   14.99486
       O   -18.19485    8.08794   15.37885
      H1   -18.37020    8.83729   16.03765
       H   -14.85328   15.53700    5.79511
       O   -15.43596   15.29461    5.07095
      H1   -15.70960   14.35609    5.14759
       H   -19.33978   11.72485   13.88839
       O   -18.95857   12.22273   14.62834
      H1   -19.19315   11.64320   15.41389
       H   -18.00502    6.83423    1.78631
       O   -17.57091    7.56176    2.19651
      H1   -16.65334    7.29610    2.08619
       H   -14.46260   10.26997   13.70154
       O   -13.77356   10.83170   13.33765
      H1   -13.07025   10.19522   13.08272
       H   -19.77193   13.54627    8.09259
       O   -18.91920   13.68719    7.74623
      H1   -19.09073   14.44480    7.16293
       H   -18.78291    6.23694   11.51055
       O   -18.37574    6.96925   11.91111
      H1   -18.73801    7.13796   12.75468
       H   -16.78508    7.96132    8.10337
       O   -17.10990    7.32195    7.41889
      H1   -18.03832    7.55929    7.37189
       H   -15.49922   12.13890    5.60422
       O   -16.15615   12.80273    5.68361
      H1   -17.04630   12.43550    5.43971
       H   -14.69220    4.56276    6.48987
       O   -14.10322    4.38917    5.71588
      H1   -14.70049    4.21367    4.96816
       H   -17.78901   15.60079    9.71521
       O   -17.22038   16.33393    9.71852
      H1   -16.83200   16.36599   10.59974
       H   -12.92296   11.76111    5.91013
       O   -13.64081   11.08110    6.01037
      H1   -13.97159   10.98399    6.90820
       H   -19.04631    8.98350    9.13909
       O   -18.56811    9.45054    9.83828
      H1   -18.70907    8.87188   10.61805
       H   -14.61637    6.86672    6.68200
       O   -14.17760    7.64247    6.33466
      H1   -14.90931    8.21456    6.23586
       H   -16.57424   13.72284    8.92721
       O   -15.75352   13.54349    8.39826
      H1   -16.06191   13.34898    7.46490

