96
frame 2 | Written by MDAnalysis XYZWriter (release 2.4.3)
       H    16.63609   18.58342   11.87077
       O    17.20001   18.04747   12.45374
      H1    17.71767   18.71590   12.97223
       H    17.55299   10.92196   11.63185
       O    17.86193   10.82782   12.55378
      H1    18.53823   10.11433   12.60571
       H    14.38459   15.98300    7.28566
       O    14.35215   15.51439    8.16832
      H1    15.29378   15.39916    8.50101
       H    14.52428   10.21610    8.78987
       O    14.59532    9.81640    9.67660
      H1    14.47272    8.86529    9.65211
       H    13.98862   10.23967   11.09009
       O    13.68289   10.48958   11.99111
      H1    12.79370   10.04445   12.09692
       H    16.73171   14.27785    8.77813
       O    16.79159   15.18353    9.08220
      H1    16.86604   15.09205   10.05959
       H    17.60533   10.53030    5.29692
       O    18.10503   11.31440    5.05470
      H1    18.91920   11.20005    5.54447
       H    15.08143   20.05099   10.99218
       O    15.75179   19.42746   10.52645
      H1    15.03732   18.80113   10.27213
       H    16.36422   17.80003   14.65840
       O    16.68153   17.91365   15.53191
      H1    17.50615   17.39217   15.56652
       H    16.99646   11.88704    7.95463
       O    16.63472   12.46106    7.22036
      H1    17.09323   12.23995    6.41816
       H    19.31133   13.93658   13.16766
       O    18.43962   13.61593   13.15807
      H1    18.44947   12.67609   12.88307
       H    16.75447   10.30416   13.75485
       O    15.94120    9.83465   14.02810
      H1    15.28071   10.09806   13.38892
       H    18.52394    8.05512   13.65804
       O    19.19330    8.52113   13.14736
      H1    20.03818    8.46018   13.60698
       H    14.87520   11.68763    7.25561
       O    14.13865   11.13806    7.41432
      H1    14.17284   10.54196    6.67148
       H    18.88847   14.30195   15.11066
       O    18.78172   14.51581   16.03617
      H1    17.75142   14.38358   16.06849
       H    19.46245   13.82063    8.93821
       O    19.63117   13.88793    7.97026
      H1    18.97798   14.39032    7.52118
       H    19.33625    6.19431   10.94221
       O    19.78319    7.07061   10.87109
      H1    19.64936    7.41399   11.75107
       H    15.31859   15.83286   12.16291
       O    14.38501   15.68496   12.41940
      H1    14.34164   14.75057   12.42233
       H    18.11240   11.82202   17.87592
       O    17.30363   11.32583   17.69763
      H1    17.07129   11.39854   16.79162
       H    19.20237   13.81106   17.55809
       O    19.37975   13.21290   18.32339
      H1    19.32943   13.80453   19.08741
       H    17.81005   10.23475    9.09671
       O    17.22556   10.92627    9.45761
      H1    16.45265   10.33706    9.68599
       H    18.32061   16.48302    8.65673
       O    19.11716   16.93897    8.53321
      H1    18.86596   17.57124    7.86311
       H    13.79748   16.89113   11.25383
       O    13.57463   17.31515   10.36563
      H1    13.83772   16.72344    9.63474
       H    19.85491   15.87431    5.25495
       O    19.07114   15.74705    5.85790
      H1    19.30091   16.22877    6.65389
       H    14.84664   15.81935   14.25214
       O    14.58554   15.61703   15.18756
      H1    13.74840   15.19148   14.96506
       H    15.61304   14.71455    5.10026
       O    15.31147   13.79551    5.38477
      H1    15.85848   13.53133    6.13000
       H    16.16417    7.87433   14.10653
       O    16.62134    7.14315   14.51561
      H1    16.62062    6.39697   13.96426
       H    15.61770   14.55739   16.02861
       O    16.18145   13.78840   16.28275
      H1    16.20951   13.64410   17.23923
       H    12.44692   13.26512   11.64683
       O    13.11898   13.12639   12.34082
      H1    13.18138   12.15103   12.19957
       H    20.04309    8.92905    8.35526
       O    19.25342    9.02000    8.94404
      H1    19.42824    8.47774    9.73621
       H    17.20065   16.40275   11.67802
       O    17.14842   15.47566   11.64448
      H1    17.61447   15.15220   12.51390
       H    19.08514   12.23885   10.04243
       O    19.56923   12.93905   10.51333
      H1    19.04646   13.20348   11.28036

