96
frame 0 | Written by MDAnalysis XYZWriter (release 2.4.3)
       H    17.30267    4.84586    6.40557
       O    17.30596    3.97010    6.84108
      H1    16.53380    3.98729    7.49805
       H    16.66686    6.72114    5.07545
       O    17.41722    6.20607    5.11377
      H1    18.25174    6.73900    4.98264
       H    18.11044   10.24123    0.65080
       O    18.53545   10.49368    1.46308
      H1    19.46017   10.17378    1.23600
       H    14.28369    3.75962    2.27009
       O    15.05959    3.72392    1.69567
      H1    15.36522    2.82312    1.61088
       H    13.86005    8.77027    2.17379
       O    14.52975    8.06800    2.41656
      H1    14.94027    7.83870    1.53623
       H    18.84475   -0.29242    2.09829
       O    19.38568    0.42479    1.78656
      H1    19.43180    0.95112    2.60672
       H    15.48560    3.84774   -2.97947
       O    16.26935    3.58093   -3.40666
      H1    16.31152    4.13422   -4.19167
       H    15.20490   12.18414   -0.57464
       O    15.45483   11.64423    0.15226
      H1    14.89020   10.87282    0.02175
       H    12.39707    3.07584   -0.76974
       O    12.31593    3.99909   -0.84046
      H1    13.18136    4.35651   -0.94144
       H    15.81524    6.01215   -5.68596
       O    16.18257    5.85118   -4.79723
      H1    17.05764    6.21903   -4.87275
       H    12.68022    4.55104    5.08973
       O    12.61289    3.94216    4.33368
      H1    11.64202    3.77620    4.30094
       H    16.31195    0.75159    1.70037
       O    16.64578    1.40760    1.15706
      H1    17.59076    1.27360    1.08144
       H    15.99613    1.30719   -0.55395
       O    15.61698    1.48917   -1.39956
      H1    16.31822    1.88451   -1.97348
       H    15.87534    8.79795    2.86154
       O    16.64133    9.17822    3.38894
      H1    17.43851    9.20850    2.74802
       H    17.90425   10.27323   -1.66325
       O    17.42788   10.05967   -0.84981
      H1    16.75738   10.64412   -0.55628
       H    11.18219    5.77887    2.01387
       O    11.02424    4.90931    1.65133
      H1    11.56694    4.85374    0.81694
       H    18.66804    9.76748    4.84570
       O    18.52806   10.21687    5.69937
      H1    19.27560   10.87052    5.70348
       H    16.09272    6.80006    8.38156
       O    16.47264    7.38004    7.72260
      H1    16.09438    7.24752    6.87180
       H    18.92821    1.88717    5.02889
       O    18.96033    2.14207    4.10282
      H1    18.30747    2.82956    3.98165
       H    13.60630    1.27691   -1.40630
       O    12.61669    1.37148   -1.31474
      H1    12.28822    0.52822   -1.16762
       H    15.16408    8.00654    4.67451
       O    15.01764    7.42136    5.40230
      H1    14.17150    7.01188    5.43872
       H    19.70378    1.87637   -0.33644
       O    19.10979    1.69343   -1.06309
      H1    19.47865    2.06265   -1.85862
       H    18.30556    4.49729   -2.39316
       O    18.39017    5.30712   -1.93620
      H1    18.32891    6.03818   -2.55002
       H    12.05840    6.52557   -1.76777
       O    11.42982    7.24649   -2.00922
      H1    11.20223    7.11041   -2.94045
       H    16.61834    3.90767    2.79781
       O    17.47312    4.18624    3.20663
      H1    17.28017    4.97970    3.75886
       H    19.59034    7.64292   -3.43346
       O    18.74297    7.36159   -3.80271
      H1    18.13994    8.07776   -3.57736
       H    11.56859    8.19170    1.90224
       O    11.83518    7.37034    2.36523
      H1    12.77800    7.39761    2.59255
       H    16.46151    7.28566    0.17498
       O    15.49318    7.27678    0.06777
      H1    15.28387    6.36063   -0.11771
       H    13.49143    8.62052   -1.61388
       O    14.28840    8.88355   -2.05859
      H1    15.08179    8.63862   -1.54996
       H    14.83265    6.39669   -3.98198
       O    13.93304    6.59904   -3.60707
      H1    14.05769    7.40087   -3.10992
       H    15.50937    5.10935   -1.67459
       O    14.83896    4.93114   -0.99368
      H1    15.17927    4.31758   -0.28804
       H    17.42397    5.46230    1.11378
       O    17.89748    6.09797    0.55559
      H1    18.20377    5.56234   -0.25057

