96
frame 1 | Written by MDAnalysis XYZWriter (release 2.4.3)
       H   -15.37153   11.83840    1.38807
       O   -16.26744   12.03292    1.59470
      H1   -16.50417   12.67837    0.91687
       H   -16.96028   11.45851   -1.17929
       O   -16.15058   11.00078   -1.34912
      H1   -15.88675   11.13186   -2.27570
       H   -15.05140   18.91309    1.26003
       O   -15.02019   19.20359    0.35253
      H1   -14.38555   19.91523    0.18132
       H   -11.15111   17.69854   -1.03001
       O   -11.57412   17.57371   -0.18295
      H1   -10.94195   17.12048    0.41781
       H   -17.09674   17.10249    4.80660
       O   -17.63226   17.69829    5.35616
      H1   -17.11324   17.55007    6.18394
       H   -13.30026   16.58736   -0.00549
       O   -14.08335   16.04379   -0.06639
      H1   -14.50049   16.56712   -0.76010
       H   -19.99520   16.18452   -4.10752
       O   -19.28322   16.87038   -4.34782
      H1   -19.70627   17.56887   -4.81404
       H   -15.44866   19.24761    3.81533
       O   -15.96009   18.91819    3.03902
      H1   -16.21691   18.02054    3.24282
       H   -11.76218   18.95861    0.97678
       O   -11.93718   19.74336    1.47590
      H1   -11.65117   19.68874    2.38655
       H   -13.57519   17.41266   -5.48566
       O   -13.41240   17.70415   -4.55941
      H1   -13.02632   16.94968   -4.12541
       H   -15.37687   18.03738   -1.13319
       O   -15.94960   17.30564   -1.33286
      H1   -16.02143   17.21839   -2.28749
       H   -17.03952   13.10162    2.84452
       O   -17.66186   13.55879    3.46436
      H1   -17.21050   14.41222    3.56535
       H   -15.51848   15.05099    0.50970
       O   -16.43324   14.82015    0.48013
      H1   -16.87172   15.47744   -0.13950
       H   -18.98068   17.77034    0.31022
       O   -18.65288   17.85888   -0.58406
      H1   -17.70643   17.72325   -0.59780
       H   -13.52522   12.17965    0.05161
       O   -13.64301   11.65494    0.84289
      H1   -13.90163   10.76961    0.56900
       H   -15.18662   14.64359   -3.28211
       O   -14.51227   14.00105   -3.47480
      H1   -14.17639   13.79855   -2.60484
       H   -15.24699   12.24767   -3.71723
       O   -15.05901   11.28861   -3.80082
      H1   -15.83102   10.91402   -4.20056
       H   -10.42174   12.98815   -0.95854
       O   -10.45765   13.94870   -1.07494
      H1   -10.02568   14.12312   -1.93689
       H   -11.89397   15.36003   -4.85280
       O   -12.04260   15.41628   -3.88793
      H1   -12.82106   14.87766   -3.85556
       H   -10.61037   17.42206   -3.45056
       O   -10.55585   17.87937   -2.62813
      H1    -9.99967   18.62810   -2.91328
       H   -17.87733   16.87619    2.59860
       O   -17.06688   16.43075    2.81242
      H1   -16.77505   16.06353    1.93689
       H   -10.12309   13.92641    3.44190
       O    -9.36277   14.57800    3.40209
      H1    -9.62979   15.05520    2.59621
       H   -16.11492   15.89835   -4.73672
       O   -16.45581   16.14357   -3.88532
      H1   -17.34443   16.40941   -4.01763
       H   -18.77510   12.46955   -3.69630
       O   -18.01158   12.92406   -3.33329
      H1   -18.27002   13.09770   -2.41431
       H   -15.04078   15.90148   -7.12325
       O   -15.45939   15.12678   -6.65630
      H1   -14.82397   14.41419   -6.44621
       H   -16.47267   18.32369   -4.61762
       O   -15.92992   19.06045   -4.20444
      H1   -15.03845   18.79095   -4.48123
       H   -12.21612   13.89430   -1.06848
       O   -13.13433   13.59558   -1.15669
      H1   -13.56446   14.40357   -0.84815
       H   -17.50980   19.39956   -2.99233
       O   -18.43960   19.66365   -2.79661
      H1   -18.64299   19.15558   -1.98551
       H   -19.62601   11.29269   -0.34161
       O   -19.09982   12.10729   -0.61051
      H1   -19.09326   12.51643    0.28475
       H   -18.77561   16.10710   -0.86360
       O   -18.65527   15.26934   -1.38881
      H1   -18.71416   14.62344   -0.68664
       H    -9.90955   14.79545   -3.79249
       O    -9.02117   14.70340   -3.36548
      H1    -8.69444   13.83444   -3.65086
       H   -10.01020   15.40100    0.24857
       O    -9.92562   15.95055    1.00703
      H1    -9.18349   16.51206    0.78085

