96
frame 0 | Written by MDAnalysis XYZWriter (release 2.4.3)
       H     8.20204  -11.01260   10.80171
       O     8.76839  -11.67326   10.39092
      H1     8.32338  -12.47501   10.70115
       H    11.62335   -7.65926   10.82613
       O    10.73225   -7.26132   10.92036
      H1    10.97414   -6.41091   11.27565
       H     8.79596  -14.68830   13.21702
       O     9.44172  -15.32698   13.62540
      H1     9.03815  -15.58625   14.47505
       H    13.88136  -17.37153   14.29724
       O    13.89706  -17.84454   15.14535
      H1    13.04511  -17.73639   15.54782
       H     9.78502  -14.11124    6.40175
       O    10.33280  -14.62194    7.04531
      H1    11.10794  -14.80720    6.51875
       H    12.25001  -13.94326   15.34204
       O    11.32085  -14.03798   15.69509
      H1    10.72259  -14.09668   14.93310
       H    14.07006   -7.98516   11.40223
       O    13.45323   -8.14476   10.66594
      H1    13.79824   -7.57357    9.98407
       H    13.12877  -11.79985   14.77905
       O    13.00695  -11.13991   14.09248
      H1    12.46353  -11.56154   13.42129
       H    14.99022  -13.28701    6.20662
       O    14.89155  -13.15269    5.26122
      H1    15.43145  -12.34254    5.04926
       H    13.88310  -10.29576    7.77102
       O    14.14280  -10.46565    6.81234
      H1    14.33161  -11.42427    6.86882
       H    15.81044  -16.57988   12.47866
       O    16.36813  -17.12622   11.94888
      H1    17.23235  -17.23353   12.40607
       H    17.88473  -14.25516   11.48005
       O    18.27285  -14.00621   10.67199
      H1    19.19123  -14.17041   10.62426
       H    10.29524  -16.54929   12.43570
       O    10.78405  -17.37490   12.19883
      H1    10.53520  -17.97594   12.94578
       H    13.34459  -12.85803   17.58961
       O    13.28301  -12.21651   16.88213
      H1    13.96762  -11.52262   16.98024
       H    13.01424  -14.85423    9.95432
       O    13.10098  -13.90049   10.12374
      H1    12.18519  -13.58819    9.88127
       H    13.50544   -9.65930   10.14238
       O    13.69164  -10.48807    9.63737
      H1    12.96457  -11.10382    9.71532
       H    14.25033   -9.00176   15.69169
       O    13.92619   -8.74266   14.83189
      H1    13.53241   -9.58217   14.51729
       H    10.98190  -12.00928   11.49373
       O    11.60750  -12.46575   12.09130
      H1    12.32128  -12.75207   11.48412
       H     9.13873   -8.91337   13.20091
       O     8.80302   -8.38713   12.46092
      H1     9.55779   -7.98069   12.06920
       H    15.23336  -13.19201    9.17494
       O    15.61606  -12.84956    8.31992
      H1    16.39830  -12.34241    8.69000
       H    14.71152  -14.37419   15.12952
       O    14.01863  -14.10644   14.55292
      H1    14.44920  -13.86352   13.70222
       H     7.28550  -12.63144   12.74099
       O     7.59861  -13.49890   12.39997
      H1     6.77809  -13.90912   12.23436
       H    10.98155  -17.09722   16.97813
       O    11.17857  -16.84800   16.05284
      H1    11.10346  -15.90333   16.05812
       H    13.73411  -16.50095   10.69541
       O    13.88401  -16.80049    9.76982
      H1    14.74183  -16.34157    9.47232
       H    15.43643  -12.30314   12.11750
       O    15.37941  -13.26529   12.07201
      H1    14.68007  -13.48469   11.48810
       H    12.38215  -16.69878   12.42739
       O    13.26698  -16.24794   12.61693
      H1    12.93806  -15.52118   13.17606
       H    17.01357  -15.08325    9.62052
       O    16.52337  -15.89917    9.44523
      H1    16.67519  -16.48677   10.23417
       H     9.69376   -9.74992   15.13015
       O     9.41149  -10.38515   14.48287
      H1    10.12098  -11.00288   14.34381
       H     7.63630  -10.95423   14.16678
       O     6.79351  -11.09430   13.70684
      H1     6.12550  -11.03808   14.43875
       H     6.56177  -14.28266    8.39698
       O     6.87555  -14.45387    9.28917
      H1     7.47199  -15.18853    9.03949
       H    15.30139  -10.32546   10.94967
       O    15.82526  -10.32098   11.76599
      H1    15.41895   -9.71631   12.33501
       H    10.11602  -12.17930    9.15985
       O    11.00356  -12.45373    8.81891
      H1    10.86424  -13.08133    8.12182

