96
frame 1 | Written by MDAnalysis XYZWriter (release 2.4.3)
       H     8.73121   17.56215   11.93395
       O     8.12420   17.40256   11.14814
      H1     7.67911   16.59834   11.40885
       H     6.38966   12.60637   15.59977
       O     7.15453   12.68553   16.17571
      H1     7.43257   11.80726   16.44752
       H    12.37667   19.76772   14.76074
       O    12.63913   18.84716   14.71347
      H1    13.50429   18.70795   15.15087
       H     5.76563   18.53326   14.58404
       O     5.35254   19.40693   14.43977
      H1     4.53911   19.40188   14.95726
       H     4.54381   13.81186   14.36675
       O     5.03023   13.04035   14.12658
      H1     4.97771   13.03351   13.20476
       H     0.81998   19.27017   12.17780
       O     1.60022   19.19434   12.67683
      H1     1.95120   18.31738   12.68215
       H     4.25101   18.79571    9.21771
       O     4.77548   19.47080    9.70480
      H1     4.71471   20.31201    9.24411
       H     2.69100   16.07962   12.10550
       O     1.97311   16.41572   12.64554
      H1     1.14465   16.06545   12.25247
       H     4.70550   16.55420   11.59110
       O     4.89191   15.58615   11.62157
      H1     5.24903   15.32725   10.74385
       H     6.42906   15.21030   12.52480
       O     7.29938   15.39718   12.88113
      H1     7.48691   14.54027   13.25728
       H     9.62068   16.93727   10.28219
       O    10.27460   16.74504    9.66753
      H1    11.11755   16.55234   10.03366
       H     2.40224   13.63895   18.00999
       O     2.08447   14.08917   17.19183
      H1     1.71994   14.90275   17.50143
       H    10.68360   15.33188   15.50792
       O    11.14057   14.67734   14.94518
      H1    11.32170   15.32068   14.22000
       H     3.68528   17.38817   16.37708
       O     3.27469   18.17765   15.97592
      H1     2.62259   17.83394   15.34760
       H    11.89900   13.76396   19.39645
       O    11.02272   13.67450   18.92107
      H1    10.71781   14.58644   19.02471
       H     9.75762   13.67867   14.63892
       O     9.04606   13.08812   14.40378
      H1     8.44807   13.00690   15.18588
       H     5.49728   13.25837   11.10516
       O     5.43261   12.38015   11.42815
      H1     4.48894   12.21774   11.28387
       H     0.20229   16.59533   16.81095
       O     1.06200   16.53087   17.27850
      H1     1.41116   17.42031   17.28277
       H     5.42585   15.88924   18.12714
       O     5.34161   16.57013   17.43169
      H1     5.61948   17.39751   17.83877
       H     5.84250   13.75582   18.09286
       O     5.80675   14.14639   18.95925
      H1     5.97812   13.49374   19.63352
       H     1.33753   14.49981   10.66893
       O     2.30213   14.27809   10.52856
      H1     2.44379   14.74215    9.68584
       H     9.23227   12.27294   12.85442
       O     9.35695   11.66043   12.07490
      H1     9.68921   10.79209   12.34113
       H     8.01175   16.57486   18.19451
       O     7.99798   15.96345   18.94409
      H1     7.51718   15.19570   18.64731
       H     6.92440   16.51859   14.14910
       O     6.61308   17.09562   14.94440
      H1     6.00155   16.51538   15.45176
       H     6.71569   15.26137    8.96461
       O     5.91510   14.86287    9.32488
      H1     5.45551   14.71883    8.55248
       H     7.60548   18.04323   16.31372
       O     8.14390   18.24940   17.10425
      H1     7.88914   19.11904   17.31870
       H    14.22300   14.86542   15.01124
       O    13.63843   15.12391   15.70198
      H1    12.74137   14.83373   15.40536
       H     4.94879   18.47461   12.78620
       O     4.56973   18.14201   11.94530
      H1     4.74421   18.82222   11.29451
       H     4.02498   10.16170   13.57619
       O     4.84769   10.21799   14.01554
      H1     4.91402   11.15361   14.11849
       H     2.65535   15.35474   14.11380
       O     3.19064   15.06070   14.83603
      H1     2.69271   14.90931   15.65745
       H    11.39868   17.85996   15.74030
       O    10.55810   17.33725   15.89224
      H1     9.91767   17.86353   16.33572
       H    10.19411   19.01549   13.14514
       O     9.66103   18.21456   13.21806
      H1     9.95791   17.89807   14.09836

