96
frame 1 | Written by MDAnalysis XYZWriter (release 2.4.3)
       H   -14.25823  -12.35939   10.35692
       O   -13.77482  -12.18705    9.54969
      H1   -14.01186  -11.27909    9.32693
       H    -6.87338   -8.77101    9.06116
       O    -7.72501   -8.88233    9.50668
      H1    -8.10051   -9.74527    9.19904
       H   -14.54924   -8.07821    7.58437
       O   -15.43917   -8.22731    7.98138
      H1   -15.62183   -7.54921    8.62500
       H    -7.44021  -12.00438    5.43479
       O    -7.16587  -11.60574    4.58761
      H1    -7.86233  -11.74232    3.95435
       H   -10.36750  -10.75896    9.61560
       O    -9.46235  -11.03423    9.34487
      H1    -9.59725  -10.94148    8.41922
       H    -8.22176  -12.15842   10.00550
       O    -7.54282  -12.62512   10.58494
      H1    -7.64442  -12.18688   11.49929
       H   -12.47711   -9.93713   10.62536
       O   -11.78493  -10.58564   10.72414
      H1   -12.17041  -11.34244   10.21062
       H   -12.20666   -6.45569   11.16974
       O   -11.49131   -6.97404   11.59790
      H1   -11.02779   -7.43006   10.85509
       H    -7.98792  -14.04656   11.95223
       O    -7.78847  -14.80466   12.44551
      H1    -7.35428  -15.39856   11.83449
       H   -11.72535  -14.66143    8.18848
       O   -11.15873  -15.04323    8.90047
      H1   -11.50788  -15.89852    9.05498
       H   -13.07702  -12.30460   15.29587
       O   -12.43465  -12.76855   14.72041
      H1   -12.14976  -12.17424   14.02888
       H   -14.22150  -12.60244   12.81061
       O   -14.49560  -11.81135   12.37444
      H1   -15.46448  -11.80861   12.32631
       H   -11.59522  -10.08529    5.30174
       O   -11.87928  -10.08237    4.40405
      H1   -11.33181  -10.70661    3.91288
       H   -11.17650  -13.37484    5.73628
       O   -10.33634  -13.05961    5.39588
      H1    -9.71439  -13.76917    5.35845
       H   -10.02243  -11.46514    6.29091
       O   -10.02301  -10.57533    6.66307
      H1    -9.39659  -10.02000    6.17500
       H   -12.06740   -7.83583   13.33313
       O   -12.54149   -7.63440   14.11327
      H1   -13.03643   -6.79053   13.92981
       H    -7.64827   -9.99007    4.87129
       O    -7.94014   -9.09591    5.23784
      H1    -8.65931   -8.74972    4.71419
       H   -14.66458   -8.85486   11.08149
       O   -14.10714   -8.94392   10.33892
      H1   -14.66420   -8.76052    9.61559
       H    -7.43270  -11.25788   13.85877
       O    -7.84997  -11.23460   12.98051
      H1    -7.47157  -10.36023   12.65398
       H    -9.19247   -6.21499    6.79772
       O   -10.08397   -6.56224    6.65215
      H1   -10.02426   -6.75346    5.73821
       H    -7.46460   -8.74019   11.14443
       O    -7.22935   -8.84628   12.07361
      H1    -7.79808   -8.33128   12.61853
       H   -11.97174   -8.20906    6.97029
       O   -12.81483   -8.21689    6.57138
      H1   -12.78236   -7.61193    5.80077
       H   -12.03820  -14.58495   10.77924
       O   -11.98225  -14.28377   11.73104
      H1   -12.89207  -14.53191   12.09888
       H    -9.22069  -15.13120    9.16866
       O    -8.27802  -15.26560    9.34516
      H1    -7.87831  -14.40580    9.51490
       H    -9.61445   -5.98888   13.87944
       O    -9.18627   -6.13932   13.03537
      H1    -9.89654   -6.56297   12.52515
       H   -10.17794  -10.83644   13.33465
       O   -11.08780  -10.60163   13.40324
      H1   -11.36198  -10.47088   12.47172
       H   -13.02484  -12.86801    7.09060
       O   -12.78922  -13.77992    6.80794
      H1   -13.48974  -14.17973    6.28563
       H   -15.61057  -10.86248    6.70559
       O   -14.78465  -11.17104    6.37171
      H1   -14.35941  -10.37342    5.98582
       H    -7.04776  -13.59223    7.09129
       O    -7.12316  -12.60694    7.04144
      H1    -6.28672  -12.34149    7.44846
       H    -9.64073   -8.34954    9.15952
       O   -10.54424   -7.98262    9.12072
      H1   -10.41347   -7.41813    8.32246
       H    -5.75819  -11.68559    9.92084
       O    -5.07232  -11.32401    9.27347
      H1    -4.75390  -12.14302    8.75137
       H   -14.46694  -10.26187   13.02489
       O   -14.51196   -9.43019   13.56316
      H1   -13.74430   -8.79206   13.55329

