96
frame 2 | Written by MDAnalysis XYZWriter (release 2.4.3)
       H     4.17850   12.41199   18.61441
       O     4.26935   11.48286   18.38934
      H1     5.18188   11.17667   18.57053
       H     6.54494   12.44051   15.34472
       O     7.19328   12.70750   16.00317
      H1     7.72704   11.93665   16.17037
       H    10.38635    6.35434   17.21737
       O     9.99078    7.17765   17.35469
      H1    10.57690    7.82919   16.99883
       H    10.80545    5.34343   13.77897
       O    10.51504    6.25446   13.90397
      H1     9.70961    6.09466   14.43966
       H    11.46360   13.13438   15.77586
       O    11.07818   12.49027   16.48050
      H1    10.97819   13.01275   17.31176
       H     4.44435   13.25363   13.49292
       O     5.27921   12.69921   13.50999
      H1     5.61298   12.81411   12.58372
       H    14.23934   13.95487   17.46493
       O    13.80915   14.42608   18.21337
      H1    13.76453   13.77436   18.90598
       H     9.62951   11.35399   16.82453
       O     8.85429   10.85946   17.10475
      H1     8.88661   10.08016   16.50550
       H    10.77760    9.64834   13.89184
       O    11.18855    9.89233   13.06108
      H1    10.88065    9.25135   12.39777
       H     6.38974   15.16647   12.56555
       O     7.27417   15.57005   12.78384
      H1     7.76430   14.98425   13.40699
       H    13.98862   10.23967   11.09009
       O    13.68289   10.48958   11.99111
      H1    12.79370   10.04445   12.09692
       H    11.41215   14.83052   14.52893
       O    11.84013   13.94815   14.49119
      H1    12.13185   13.78307   13.56845
       H     9.91146    7.78883   15.03133
       O     9.60143    8.67014   15.03008
      H1     8.70691    8.58149   14.63825
       H    11.69084   14.90626   18.83189
       O    10.84468   14.46461   18.75949
      H1    10.18340   15.17762   18.49526
       H     9.67563   14.36311   14.79138
       O     9.02050   13.82226   14.32311
      H1     8.57591   13.47480   15.06562
       H     3.53832   10.35346   15.23123
       O     3.28365   10.05898   16.09364
      H1     4.03988   10.47453   16.50025
       H     4.41367   15.11396   15.67258
       O     4.68566   15.77284   16.36538
      H1     5.20118   15.26307   17.02140
       H     6.59821   13.79544   17.35710
       O     6.44899   14.48948   17.99398
      H1     6.52995   14.07585   18.85143
       H     7.36996   12.09545   10.22253
       O     8.12534   11.50929   10.12599
      H1     8.67064   11.83810   10.83468
       H     9.73753   12.82933   12.98087
       O     9.80583   12.26252   12.12929
      H1    10.42601   11.55731   12.36628
       H     8.69060   16.88157   17.49383
       O     8.79145   16.04276   17.95869
      H1     8.04904   15.54043   17.60959
       H    14.84664   15.81935   14.25214
       O    14.58554   15.61703   15.18756
      H1    13.74840   15.19148   14.96506
       H     7.42079    6.95559   18.60658
       O     7.95347    7.58427   19.12929
      H1     8.71966    7.67563   18.56758
       H     6.96684    9.29209   18.93598
       O     6.82648   10.20682   18.66498
      H1     7.61049   10.39139   18.06709
       H     7.01898    9.48020   12.30234
       O     7.60912    9.18215   11.56195
      H1     7.86590    9.96269   11.09412
       H    12.44692   13.26512   11.64683
       O    13.11898   13.12639   12.34082
      H1    13.18138   12.15103   12.19957
       H     4.31506    9.81670   12.42101
       O     4.80600   10.01624   13.24292
      H1     4.85112   10.91803   13.36830
       H    10.08436   17.22278   13.75672
       O    10.40566   16.50167   14.31161
      H1    10.03752   16.78753   15.14969
       H    15.29765    7.27550   16.09007
       O    14.59328    6.78907   16.55067
      H1    14.14958    7.15986   17.28527
       H    15.47451   10.69135   18.58006
       O    15.01053   10.62026   19.39672
      H1    15.53615   11.10224   20.03855
       H     6.55768    7.81942   15.15631
       O     6.97560    8.40233   14.49011
      H1     6.22527    8.98630   14.23275
       H    11.91033   10.78412   17.31816
       O    12.23981    9.88132   17.47169
      H1    12.84756    9.96894   18.16750

