96
frame 3 | Written by MDAnalysis XYZWriter (release 2.4.3)
       H    17.11740  -12.58671   -5.58742
       O    16.29004  -12.27526   -5.97171
      H1    16.40240  -11.31642   -6.14375
       H    18.54053  -17.42285   -8.18444
       O    18.42264  -17.11843   -7.25701
      H1    18.21792  -17.94798   -6.78192
       H    18.62567   -8.94317   -8.29181
       O    18.21001   -9.75293   -7.99928
      H1    17.76235   -9.47394   -7.15780
       H    16.38928  -13.62574  -15.19103
       O    15.45646  -13.66363  -14.92175
      H1    15.24915  -14.56784  -14.73882
       H    15.64634  -11.76733   -4.11126
       O    15.45636  -11.59441   -3.18046
      H1    15.25073  -10.68198   -3.00510
       H    15.15927  -16.27419   -5.86885
       O    14.84452  -17.14408   -5.58556
      H1    15.45583  -17.77008   -6.05317
       H    13.86037  -16.57285  -15.11449
       O    14.57064  -16.23381  -14.55673
      H1    14.30391  -16.52175  -13.61029
       H    11.46934  -11.84055   -8.65545
       O    10.53930  -12.15522   -8.64651
      H1    10.65441  -13.11946   -8.74993
       H    13.24241  -11.60994   -9.76003
       O    13.05828  -11.09461   -9.00993
      H1    13.89371  -10.61565   -8.93370
       H    12.84723  -18.35081   -8.32303
       O    12.62454  -18.26342   -9.25869
      H1    13.12839  -17.53001   -9.57729
       H    14.21486  -12.10598  -12.21864
       O    14.60963  -12.17382  -11.33073
      H1    15.56136  -12.00428  -11.34041
       H    11.05247  -14.00353   -6.04869
       O    11.80995  -14.52171   -6.30814
      H1    11.52736  -14.92306   -7.13041
       H    12.35596   -8.82472   -9.37401
       O    12.28030   -7.86669   -9.14463
      H1    12.92778   -7.56935   -8.44797
       H    13.49759  -14.47539   -6.45119
       O    14.44975  -14.37220   -6.54761
      H1    14.65397  -13.49335   -6.23445
       H    11.45621  -15.38312   -9.20934
       O    10.70969  -14.93766   -8.75494
      H1     9.94823  -15.41973   -9.13966
       H    19.19983  -12.56466   -9.50359
       O    19.04076  -12.76595  -10.42528
      H1    19.12510  -13.77379  -10.46206
       H    14.87848  -14.18501   -8.27328
       O    15.26141  -14.28811   -9.15688
      H1    15.04946  -13.44499   -9.56911
       H    10.15296  -10.86862  -10.30263
       O    10.64132  -10.40737  -11.03807
      H1    11.05493  -11.11702  -11.56484
       H    19.09479  -15.31263   -6.65994
       O    19.70848  -14.84049   -6.11055
      H1    19.63457  -15.22421   -5.21925
       H    12.37923  -12.23596  -14.83882
       O    13.01113  -12.45749  -14.10909
      H1    13.75154  -12.69366  -14.67612
       H    16.61134  -15.28597  -10.27883
       O    16.87304  -15.97591  -10.95369
      H1    17.22708  -15.44479  -11.69219
       H    16.87158   -7.31993  -10.08557
       O    15.91562   -7.47953  -10.32979
      H1    15.78682   -8.33483   -9.88655
       H    19.50112  -10.24069  -12.97767
       O    18.93566   -9.41717  -13.03759
      H1    18.04257   -9.60685  -12.70473
       H    18.94850  -11.67837   -7.28550
       O    19.55004  -12.42527   -7.65252
      H1    19.44310  -13.24994   -7.15446
       H    16.38019  -10.07393   -9.06126
       O    15.53414  -10.00115   -9.47017
      H1    15.67634   -9.94027  -10.42165
       H    11.73440  -13.97874  -11.49227
       O    11.29474  -13.45791  -12.16871
      H1    11.89746  -13.52173  -12.92318
       H    15.70961   -8.67376   -6.29493
       O    16.48330   -9.22021   -6.13221
      H1    16.75422   -8.94358   -5.24122
       H    18.00370  -12.47732  -11.91662
       O    17.22348  -12.46712  -12.46315
      H1    17.36261  -13.04337  -13.23238
       H    15.46356  -16.70200  -11.52565
       O    14.62500  -17.02340  -11.86078
      H1    14.61352  -17.97215  -11.69350
       H    16.70609  -10.84589  -12.47509
       O    16.39589   -9.98832  -12.13572
      H1    15.81229   -9.65486  -12.81165
       H    17.99129  -17.59011  -10.13910
       O    18.43106  -18.24785   -9.63541
      H1    17.75177  -18.87049   -9.37416
       H    13.67863  -14.73557  -10.11081
       O    12.92426  -15.21366  -10.48339
      H1    13.39638  -15.84685  -11.03259

