96
frame 2 | Written by MDAnalysis XYZWriter (release 2.4.3)
       H    -6.51341    5.89477   -5.26637
       O    -5.99092    5.12143   -5.30793
      H1    -6.47469    4.44911   -4.76397
       H    -1.21098   15.31251   -2.61605
       O    -1.88382   15.18381   -1.93549
      H1    -2.41604   15.99540   -1.93207
       H    -5.82173   10.05231   -7.59236
       O    -6.30980    9.57613   -6.91802
      H1    -6.89358    9.01138   -7.41069
       H    -3.54753    9.60931    0.29694
       O    -3.83725    8.69815    0.12183
      H1    -4.01607    8.70549   -0.83511
       H    -2.53101    7.41947   -6.84464
       O    -2.74735    8.34104   -6.77568
      H1    -3.48064    8.56512   -7.36749
       H    -3.40662    9.21955   -5.22574
       O    -3.70137    9.90021   -4.65586
      H1    -4.25112    9.36466   -4.04640
       H    -7.87079   11.18983   -4.37532
       O    -8.03039   12.12166   -4.45854
      H1    -8.58770   12.05365   -5.23570
       H    -8.34134   10.55530   -0.77322
       O    -9.27920   10.36852   -0.56986
      H1    -9.71183    9.84755   -1.30133
       H    -4.65153    5.99243   -2.88798
       O    -5.03911    6.16507   -2.01729
      H1    -4.73832    5.47480   -1.46395
       H    -7.62493   13.52784    1.59223
       O    -6.86776   13.42702    1.01333
      H1    -7.17699   12.71039    0.45760
       H    -3.88977    9.68264   -9.31456
       O    -4.23160   10.40566   -8.83472
      H1    -3.52184   11.09435   -8.68404
       H    -1.08225   12.70257   -6.16449
       O    -1.10301   13.18181   -7.00083
      H1    -1.91242   12.89822   -7.51086
       H    -2.41114   11.02560   -2.13221
       O    -1.85905   10.47626   -2.68567
      H1    -2.50781   10.27592   -3.35409
       H    -8.39324   17.05452   -2.21837
       O    -7.66981   16.45168   -2.03731
      H1    -7.95404   15.52597   -2.23937
       H    -4.94422   15.83231   -5.06342
       O    -5.77641   16.31838   -5.18029
      H1    -6.08216   16.55843   -4.24072
       H    -4.70325   11.64502   -4.81051
       O    -5.14992   12.48540   -4.44512
      H1    -6.09568   12.46035   -4.64403
       H    -7.89580   14.87079   -7.05278
       O    -7.86723   15.81890   -6.91955
      H1    -7.14896   15.94739   -6.28927
       H    -5.76979   11.38928   -1.09931
       O    -6.56418   10.88278   -0.98002
      H1    -6.29191    9.95330   -1.17866
       H    -0.20159   10.24841   -5.56529
       O    -0.17146    9.42736   -6.08512
      H1    -1.02546    9.18913   -6.39834
       H    -9.57167   10.47506   -7.28767
       O    -9.46868   11.45657   -7.04054
      H1   -10.03174   11.92983   -7.66374
       H    -4.30012   12.10989   -2.61886
       O    -3.94665   12.26302   -1.73280
      H1    -3.59680   13.14895   -1.83397
       H    -7.03119   13.20406   -8.59325
       O    -6.97826   13.07874   -7.63228
      H1    -7.58492   12.27206   -7.49007
       H    -1.19053   16.28534   -5.93468
       O    -0.47268   15.75558   -6.40397
      H1    -0.89484   14.87057   -6.61621
       H    -3.77440   15.26403   -7.71862
       O    -3.97963   15.13263   -8.66718
      H1    -3.33398   15.73283   -9.13342
       H     0.11070   12.64320   -4.25947
       O    -0.47595   11.94609   -4.47651
      H1    -0.73907   11.54305   -3.66155
       H    -4.05241   13.74626   -4.91679
       O    -3.47418   14.57782   -4.82113
      H1    -3.11241   14.53840   -3.93996
       H    -5.99450    9.04461   -3.24315
       O    -5.16762    8.83187   -2.78014
      H1    -5.17671    7.97051   -2.36746
       H    -2.02770   12.87327   -9.41113
       O    -2.80514   12.67674   -8.89803
      H1    -3.27773   13.49081   -8.80445
       H    -8.22969    6.52637   -3.00145
       O    -8.50381    7.32934   -3.61373
      H1    -9.06357    7.81138   -2.99981
       H     0.26204    8.56798   -2.12343
       O    -0.50421    8.01623   -1.97868
      H1    -1.24660    8.55848   -2.15348
       H    -7.86906    8.73635   -4.42025
       O    -7.25569    9.54396   -4.42114
      H1    -6.78664    9.56212   -5.28245
       H   -10.38358   14.39597   -3.27240
       O    -9.46842   14.30098   -3.03989
      H1    -9.35137   13.42444   -3.35042

