96
frame 2 | Written by MDAnalysis XYZWriter (release 2.4.3)
       H    16.21427   12.76597    3.83408
       O    15.96905   12.34434    3.00454
      H1    16.85279   12.11419    2.55328
       H    18.11633   10.70563    1.31252
       O    18.29350   11.62540    1.40530
      H1    18.99162   11.71750    2.00877
       H    17.79852   13.65254   -6.97219
       O    17.19034   14.07917   -6.35164
      H1    16.47156   13.38979   -6.27210
       H    17.94986   16.87291   -7.75270
       O    17.03145   16.62061   -7.73076
      H1    17.15570   15.82828   -7.19203
       H    13.71197   15.24503    2.42882
       O    14.10252   14.42836    2.01061
      H1    14.57118   13.95585    2.71242
       H    19.96095   14.86110   -2.86596
       O    19.44258   15.33132   -3.52058
      H1    18.76451   15.80683   -2.95403
       H    17.69468   15.54005    2.29488
       O    18.57708   15.35214    1.82344
      H1    18.47202   14.46162    1.48254
       H    11.66823   18.43066    0.99348
       O    12.37979   18.59330    1.64411
      H1    11.99877   19.05506    2.41214
       H    15.33253   11.59976   -0.88450
       O    14.83655   11.00315   -0.30921
      H1    14.85745   11.30172    0.60732
       H    14.83165   18.58731   -2.77462
       O    14.27050   18.85135   -3.53611
      H1    13.97311   18.05554   -3.97224
       H    19.22078   17.28252    1.90937
       O    19.86897   17.98079    1.76688
      H1    19.42911   18.80012    1.95146
       H    13.34130   17.30500    2.90729
       O    13.11828   16.57965    3.45115
      H1    13.81756   16.60515    4.18932
       H    15.19270   18.28399   -0.29976
       O    15.98219   18.74476   -0.61914
      H1    16.61316   18.04851   -0.91540
       H    11.48194   18.07870   -1.96422
       O    11.66520   18.71497   -2.65363
      H1    12.64495   18.64874   -2.80129
       H    17.37919   19.49720   -4.73716
       O    18.27143   19.14983   -4.38195
      H1    18.73338   19.84049   -3.94416
       H    13.31646   17.33330    6.06881
       O    14.30902   17.20088    5.94063
      H1    14.76680   17.94087    5.65373
       H    14.63913   15.87199    0.87557
       O    14.65058   16.63694    0.23510
      H1    13.80089   16.58199   -0.20368
       H    17.16059   11.68601   -2.77429
       O    16.44094   12.12702   -2.27780
      H1    16.46097   13.05864   -2.64361
       H    16.99555   18.79094    5.10692
       O    16.44650   18.79060    4.26265
      H1    15.72511   19.42945    4.33239
       H    12.03788   16.04250   -1.72276
       O    12.00925   16.52290   -0.89407
      H1    11.22320   16.10710   -0.42275
       H    10.85343   15.58569   -3.07288
       O    11.29621   14.83717   -2.73315
      H1    10.85072   14.52783   -1.92357
       H    14.05340   16.91515   -5.91668
       O    13.94704   16.58813   -5.01946
      H1    13.13905   16.03288   -5.10172
       H    16.89413   16.96222    4.09021
       O    16.97298   15.98597    4.19781
      H1    17.80241   15.76492    4.66424
       H    10.60413   17.86274   -3.76623
       O    10.04733   17.18862   -4.22809
      H1     9.12110   17.61150   -4.17409
       H    12.62193   13.03294   -1.76848
       O    13.10520   12.30741   -2.07432
      H1    13.28848   11.73403   -1.27824
       H    15.61304   14.71455    5.10026
       O    15.31147   13.79551    5.38477
      H1    15.85848   13.53133    6.13000
       H    19.37144   10.72443   -1.86379
       O    19.72512   11.30866   -1.21633
      H1    19.14923   11.51231   -0.44318
       H    11.84046   15.61399    2.21821
       O    11.23185   15.28899    1.56608
      H1    11.39584   14.34826    1.65515
       H    17.08470   16.84032   -2.71335
       O    17.70934   17.43422   -2.24822
      H1    18.03231   18.08359   -2.87587
       H    12.87160   13.16429    1.25246
       O    12.02197   12.67714    1.04918
      H1    12.17211   11.82199    1.51315
       H    15.73518   19.55426   -6.35224
       O    15.83581   19.78386   -5.40559
      H1    15.12447   19.24246   -4.91034
       H    15.51765   16.11610   -4.37702
       O    16.32200   15.79564   -3.99773
      H1    16.71374   15.43199   -4.84702

