96
frame 2 | Written by MDAnalysis XYZWriter (release 2.4.3)
       H    -7.68116    8.20047  -17.92304
       O    -8.66002    8.43468  -17.81861
      H1    -9.07162    8.01400  -17.03179
       H   -11.87858   11.08190  -14.29819
       O   -12.83951   10.78656  -14.44921
      H1   -13.27928   11.44879  -13.90583
       H   -17.95581    5.68333  -20.13040
       O   -17.29226    5.79599  -19.42559
      H1   -17.01326    6.68766  -19.53890
       H   -11.83079    7.90742  -18.51433
       O   -11.08123    7.75508  -19.12104
      H1   -10.31115    7.83122  -18.53321
       H   -13.97383   13.27563  -12.87087
       O   -13.96050   12.39025  -12.57969
      H1   -14.84729   11.99117  -12.79273
       H   -18.10085    6.62945  -16.48689
       O   -18.36140    5.80073  -16.85002
      H1   -18.01417    5.59420  -17.74537
       H   -11.53713    6.01250  -19.07919
       O   -11.38412    5.08378  -19.23632
      H1   -11.81344    4.62918  -18.48586
       H    -7.78562   11.55144  -16.50315
       O    -8.22480   10.78928  -16.06576
      H1    -8.53614   10.28919  -16.78656
       H   -13.33329    7.28580  -16.68369
       O   -13.44584    7.96503  -17.35178
      H1   -13.26491    8.78209  -16.90476
       H   -15.53907   18.20592  -18.10271
       O   -15.86882   17.56300  -17.47260
      H1   -16.44567   17.06544  -18.04313
       H   -14.70662   10.88511  -19.05704
       O   -15.61559   10.62961  -19.30795
      H1   -15.64358    9.67081  -19.20843
       H   -17.03858   10.49085  -18.00072
       O   -17.87163   10.52451  -17.44057
      H1   -17.81303    9.79161  -16.80409
       H   -17.53695   12.74320  -14.23300
       O   -18.29047   13.33158  -14.20359
      H1   -18.97505   12.76865  -13.95276
       H   -12.89905   14.45190  -14.47653
       O   -13.82778   14.77550  -14.29371
      H1   -14.23429   14.79532  -15.16409
       H   -10.64148   11.17659  -16.58253
       O   -11.24199   10.52837  -17.03837
      H1   -10.88188    9.60738  -17.02911
       H   -13.72391   16.76616  -19.76509
       O   -13.59591   16.60961  -18.81826
      H1   -14.42520   16.78848  -18.31071
       H   -12.02237   16.39009  -17.77676
       O   -11.24984   16.52439  -17.16602
      H1   -10.91974   15.63993  -16.98375
       H   -12.90771   13.54210  -19.10764
       O   -12.53965   14.16082  -18.42385
      H1   -13.09708   14.95654  -18.56347
       H   -18.10914    8.39290  -15.01436
       O   -17.46390    8.11158  -15.72172
      H1   -16.69546    8.00233  -15.22300
       H   -12.25971   11.14441  -18.35942
       O   -12.80366   11.34867  -19.12811
      H1   -12.22615   11.28274  -19.93805
       H   -15.91034   11.08271  -15.23020
       O   -16.41723   10.83996  -14.42732
      H1   -17.13140   10.22909  -14.66909
       H   -15.80928    5.02980  -19.61559
       O   -14.93808    4.61239  -19.31052
      H1   -14.30005    5.06267  -19.78942
       H   -18.30732   13.22185  -16.19569
       O   -18.41223   13.02938  -17.15756
      H1   -18.20836   12.09868  -17.23308
       H    -9.55289    7.79881  -14.86470
       O   -10.10934    7.95684  -15.67244
      H1   -10.92747    7.53483  -15.30051
       H   -14.03975    4.66843  -17.74080
       O   -13.29696    4.67452  -17.09815
      H1   -13.62051    4.00564  -16.44199
       H   -13.90016   14.02587  -17.34834
       O   -14.66473   14.08063  -16.81107
      H1   -15.43007   14.39497  -17.36965
       H   -14.21713   12.03376  -16.64558
       O   -14.63441   11.20070  -16.39231
      H1   -13.90881   10.86152  -15.88187
       H   -14.89409    7.38756  -19.63837
       O   -15.49730    7.83838  -19.01731
      H1   -15.02941    7.76808  -18.17972
       H   -12.58939    5.75765  -15.61793
       O   -12.54933    6.56018  -15.02815
      H1   -13.47977    6.65354  -14.67927
       H   -14.38771    8.23695  -13.12686
       O   -15.06389    8.34539  -13.83101
      H1   -15.37562    9.26415  -13.79639
       H    -9.80007   13.63218  -19.52406
       O    -9.35427   12.81545  -19.39982
      H1    -9.82437   12.19550  -18.89075
       H   -16.21033   14.95017  -19.50767
       O   -16.62510   14.94150  -18.58909
      H1   -17.19482   14.13501  -18.63979

