96
frame 2 | Written by MDAnalysis XYZWriter (release 2.4.3)
       H    -1.75958   -3.23654   12.46337
       O    -2.11488   -2.39675   12.22749
      H1    -1.53322   -1.75842   12.64920
       H     3.33044   -3.16217   11.35456
       O     3.90873   -3.57971   12.01610
      H1     3.22299   -3.98680   12.58521
       H    -1.02762   -1.34958   18.67044
       O    -0.59658   -2.09978   18.29577
      H1    -1.17751   -2.84898   18.30407
       H     0.60112   -7.37270   14.28822
       O     1.28094   -6.78909   14.68998
      H1     2.10443   -7.06375   14.31501
       H    -4.57476   -6.08308   12.29246
       O    -5.44128   -5.70659   12.51058
      H1    -6.01648   -6.15713   11.87505
       H    -0.71965   -0.62591   14.13081
       O    -0.90165   -0.15100   13.33689
      H1    -1.48254    0.62983   13.58194
       H    -0.89470   -9.93874   11.18800
       O    -0.48566   -9.08184   11.00874
      H1     0.40360   -9.40234   10.74669
       H     4.49813   -3.42799   14.81312
       O     5.46005   -3.39929   14.74572
      H1     5.63317   -3.17619   13.79862
       H    -0.52172   -3.17894    8.90336
       O    -0.28479   -3.84121    9.54039
      H1    -1.21015   -4.05513    9.82822
       H    -0.46975   -4.30545   13.56076
       O    -1.38234   -4.58649   13.72290
      H1    -1.73324   -4.07995   14.51646
       H    -3.85092   -8.95195   13.73784
       O    -3.86797   -9.27426   12.86664
      H1    -3.45441   -8.50329   12.40771
       H    -2.78884   -6.89221   10.68015
       O    -2.79378   -6.96603   11.66483
      H1    -1.88673   -6.72607   11.89637
       H    -0.68726   -8.49387   13.08061
       O    -0.54001   -8.46117   14.01627
      H1    -0.45730   -9.32357   14.41926
       H     2.68318   -0.31939   13.97735
       O     2.50464   -0.97849   14.68210
      H1     3.04944   -0.68725   15.41616
       H     3.76439   -6.95333   10.05034
       O     3.13171   -7.45388    9.59406
      H1     2.28310   -7.07949    9.78624
       H     0.95917   -1.14185   15.49971
       O     0.02258   -1.37462   15.66884
      H1    -0.06133   -1.68814   16.57014
       H     0.85265   -1.91463   11.62846
       O     1.51542   -2.05381   10.98510
      H1     0.88752   -2.43060   10.35412
       H    -3.78407   -2.19761   13.05471
       O    -4.59547   -1.85782   13.38157
      H1    -5.27434   -2.57479   13.31779
       H     4.61412   -5.15039   11.45008
       O     5.04620   -5.99468   11.20902
      H1     6.00716   -5.91358   11.25511
       H    -3.11815   -2.70565   10.29985
       O    -3.02656   -3.51117    9.77902
      H1    -3.79199   -3.65114    9.26504
       H    -0.99067   -5.13579   19.26409
       O    -1.84379   -4.87503   18.85174
      H1    -1.54903   -4.88728   17.94914
       H    -3.45689   -6.61789   15.15886
       O    -3.14905   -7.52507   15.27230
      H1    -2.47414   -7.72899   14.55994
       H     1.29078   -5.40304   12.04205
       O     1.41941   -4.82347   12.80335
      H1     1.49265   -5.40893   13.56062
       H    -0.49597   -7.15557   17.65130
       O    -0.53232   -8.05319   17.94360
      H1     0.23030   -8.57060   17.57140
       H    -3.19990   -4.13517   16.16606
       O    -2.37858   -3.61863   16.19694
      H1    -2.59332   -2.87004   16.71328
       H    -0.52845   -4.89130   16.02397
       O    -0.02386   -5.39684   16.66505
      H1     0.62311   -5.95006   16.14415
       H     1.19852   -4.31637   19.45383
       O     1.72925   -3.58442   19.12940
      H1     1.08746   -2.95205   18.75843
       H     0.13998   -7.27096   10.58281
       O     0.57811   -6.38840   10.49118
      H1     0.10713   -6.02252    9.77277
       H     3.39935   -4.49115   16.62358
       O     4.06166   -5.00965   17.14973
      H1     4.52533   -4.33628   17.64153
       H    -5.54683   -5.03863   15.83821
       O    -4.60682   -5.10036   16.12814
      H1    -4.71138   -5.64907   16.91143
       H     1.53659   -3.72595   16.68194
       O     2.00095   -3.58668   15.85229
      H1     1.60579   -2.80545   15.39132
       H     1.42466   -8.30751   16.02308
       O     1.78512   -9.00999   16.67916
      H1     2.58221   -8.61842   17.07722

