96
frame 2 | Written by MDAnalysis XYZWriter (release 2.4.3)
       H   -14.34845    1.70378   -6.05364
       O   -13.66562    1.20845   -5.53835
      H1   -13.35945    0.53050   -6.19967
       H   -10.04231   -0.60578   -9.64651
       O   -10.61233    0.11224   -9.98083
      H1   -11.12333   -0.29939  -10.72089
       H   -17.15489   -2.04756  -12.27287
       O   -16.64163   -1.25521  -12.64868
      H1   -16.37038   -1.56087  -13.53040
       H   -18.17957    0.37040  -12.48459
       O   -18.38910    1.11785  -13.07355
      H1   -18.04743    1.00849  -13.96961
       H   -15.83529    0.29906  -13.27752
       O   -15.34036    1.13346  -13.12224
      H1   -14.96689    1.46878  -13.97197
       H   -18.53699    4.58928   -9.99612
       O   -19.10622    3.91536  -10.33503
      H1   -19.00509    3.09087   -9.79517
       H   -15.15243   -1.22294  -11.19703
       O   -14.35462   -1.55527  -10.72489
      H1   -14.33256   -2.45095  -11.17438
       H   -16.43634   -0.98790   -7.99129
       O   -15.77562   -1.70605   -8.13940
      H1   -15.48593   -1.72959   -9.06032
       H   -16.11423    2.29648  -12.05220
       O   -16.52744    3.03467  -11.50739
      H1   -17.39043    3.04586  -11.93645
       H   -13.53578   -0.64870   -8.01723
       O   -12.55579   -0.59988   -7.96468
      H1   -12.29634   -0.29795   -8.84864
       H   -12.72591   -1.26711  -11.43826
       O   -11.94054   -1.01516  -11.94019
      H1   -12.32468   -0.55140  -12.71586
       H   -13.56742    2.81990   -9.19048
       O   -12.84594    3.38925   -9.49889
      H1   -13.09099    4.30763   -9.59131
       H   -19.66190   -2.94735   -8.16667
       O   -18.79517   -2.86189   -8.55260
      H1   -18.46418   -2.01404   -8.18534
       H   -14.42821    7.06056   -9.18648
       O   -15.30863    7.40132   -8.90637
      H1   -15.92883    6.86040   -9.45228
       H   -13.58962    5.89415   -6.53331
       O   -13.46475    4.91337   -6.65564
      H1   -12.78996    4.93145   -7.34645
       H   -11.46003    3.28090  -10.66289
       O   -10.69066    3.39341  -11.23544
      H1   -10.72220    4.32997  -11.61866
       H   -16.50353    3.54989   -6.71258
       O   -15.67223    3.10974   -6.69651
      H1   -14.99748    3.80071   -6.63502
       H   -13.69458   -1.39487   -3.85886
       O   -14.25060   -1.28126   -4.63450
      H1   -14.18958   -0.35188   -4.92808
       H   -19.95441   -1.24110  -10.51275
       O   -19.11346   -1.57106  -10.80563
      H1   -18.84035   -2.17821  -10.08444
       H    -9.97376    2.88890   -9.62452
       O    -9.34135    3.18329   -8.98135
      H1    -9.69803    2.85935   -8.14465
       H   -12.52411    6.65784  -10.43895
       O   -12.69356    6.24956   -9.56254
      H1   -11.80699    5.97044   -9.23520
       H   -17.94242    6.97470   -7.32420
       O   -17.11981    6.97067   -6.83941
      H1   -16.44448    6.99088   -7.52263
       H   -18.24211   -0.15627   -6.63827
       O   -17.93417   -0.35188   -7.60714
      H1   -18.37342    0.23256   -8.22473
       H   -15.44057    1.98146   -9.88600
       O   -14.93724    1.78567   -9.07036
      H1   -15.37182    2.17268   -8.32444
       H   -16.80821    5.25330  -10.71157
       O   -17.16289    5.79699  -10.00117
      H1   -17.64863    6.51162  -10.57526
       H   -15.23739    4.80880  -13.26854
       O   -14.36332    4.32585  -13.34145
      H1   -14.37019    3.76274  -12.55110
       H   -10.70741   -2.84144   -9.02679
       O   -11.68303   -3.07717   -9.03609
      H1   -12.06625   -2.26862   -8.61493
       H   -12.87471    2.79094   -4.84650
       O   -12.74708    3.42660   -4.14955
      H1   -13.42069    4.12775   -4.36099
       H   -17.75461    5.34624   -5.86482
       O   -17.81673    4.35785   -5.87477
      H1   -18.72560    4.09396   -6.20336
       H   -14.63059    1.30521   -3.47270
       O   -15.21661    1.57639   -2.75302
      H1   -14.75002    1.32267   -1.97154
       H   -16.88717    1.76787   -3.49266
       O   -17.79852    1.93273   -3.85570
      H1   -17.60898    2.45906   -4.61246
       H   -11.05094    0.49950   -6.81834
       O   -10.56565    1.01764   -6.16260
      H1    -9.82707    0.42386   -5.92466

