96
frame 2 | Written by MDAnalysis XYZWriter (release 2.4.3)
       H    11.90467   -1.36678   -0.01711
       O    12.45698   -1.25463   -0.83469
      H1    12.63308   -2.19940   -1.15586
       H    12.90043    3.98408    1.57235
       O    13.32655    3.76932    0.74032
      H1    14.17501    3.30995    0.94207
       H    15.98555    2.84646   -3.13512
       O    15.20231    3.15693   -3.63843
      H1    15.51829    4.00090   -4.04972
       H    10.45320    2.99040   -2.33878
       O    11.09677    3.25650   -1.71211
      H1    11.79644    3.69704   -2.13218
       H    12.73983    1.96626    4.63710
       O    13.58273    2.37677    4.46877
      H1    13.25274    3.26423    4.26556
       H    13.05784    5.38232    4.22237
       O    12.59552    4.74492    3.62453
      H1    11.65007    4.74253    3.96299
       H    16.69053    1.42061    2.51317
       O    17.54436    1.71402    2.32149
      H1    18.00844    1.42253    3.19400
       H    16.36395   -1.10967   -2.59750
       O    17.22093   -1.31211   -2.16885
      H1    17.45741   -0.58096   -1.60572
       H    15.12539    1.35888    0.72290
       O    15.42917    1.97339    0.04890
      H1    16.37765    1.90707    0.00166
       H    16.57594    0.32980    5.08124
       O    16.93237   -0.35756    4.44781
      H1    16.36395   -0.34430    3.71065
       H    11.53587   -0.47857    1.73939
       O    10.89986   -1.18388    1.55880
      H1    11.18671   -1.93294    2.12683
       H    10.33744    4.89627    1.17932
       O    10.36160    3.92909    0.92530
      H1    10.67409    3.77191    0.01560
       H    16.04090   -2.85077    0.99649
       O    15.10772   -3.15620    1.06108
      H1    15.08020   -3.77330    0.26245
       H    14.40913    1.31165   -1.38453
       O    14.18095    0.58883   -2.03264
      H1    13.43592    0.09884   -1.58116
       H    12.23370    1.79302    0.15672
       O    11.67385    1.48927    0.87406
      H1    11.36251    2.29874    1.27432
       H    13.56844   -1.76501    4.10369
       O    13.43152   -0.90365    3.66417
      H1    12.56416   -0.57794    3.90209
       H    17.87853    0.60406    0.61103
       O    18.00410    0.80286   -0.33489
      H1    18.81689    1.35503   -0.39114
       H    12.94499    2.25477   -4.64463
       O    12.69797    1.37348   -4.23908
      H1    13.31456    1.43327   -3.47648
       H    18.99645    4.31427   -1.68927
       O    18.94736    5.31238   -1.58111
      H1    18.65261    5.62703   -2.44740
       H    16.31782   -3.60767   -4.82035
       O    17.06404   -3.50352   -4.20827
      H1    16.93757   -2.57498   -3.85888
       H    18.65877    2.23182   -3.08335
       O    19.05060    2.68775   -2.29688
      H1    19.99845    2.34955   -2.41089
       H    15.05345   -0.78270    0.47552
       O    15.08015   -0.35882    1.37062
      H1    14.38907   -0.85891    1.82847
       H    18.28232   -2.10689    0.36149
       O    17.81064   -2.74025    0.92886
      H1    18.42325   -3.02287    1.66414
       H    17.69553    3.38004    2.40720
       O    17.80795    4.32984    2.53038
      H1    17.71514    4.41716    3.49884
       H    19.61016   -3.47668   -2.43899
       O    19.58592   -2.72297   -1.83189
      H1    18.67519   -2.35248   -1.91038
       H    17.05113    1.08851   -5.44049
       O    17.83345    1.45908   -5.03446
      H1    18.54537    0.86398   -5.13858
       H    14.38888   -0.41124   -3.50821
       O    14.81686   -1.02951   -4.04871
      H1    14.01051   -1.50828   -4.42190
       H    15.62237    0.08762   -6.85971
       O    15.44859    0.65858   -6.09160
      H1    15.28824    0.04027   -5.35805
       H    15.53082    6.52358   -0.22880
       O    14.69781    6.80442   -0.51849
      H1    14.28578    6.05946   -0.97802
       H    18.83665    6.93510    0.65053
       O    19.80705    7.03694    0.80357
      H1    20.22053    6.15516    1.02387
       H    14.13880    4.51284   -2.31107
       O    13.46523    4.85107   -1.75828
      H1    13.34473    4.36181   -0.91307
       H    17.45132    5.46046    1.11548
       O    17.46115    6.06498    0.38014
      H1    18.16230    5.81671   -0.19652

