96
frame 3 | Written by MDAnalysis XYZWriter (release 2.4.3)
       H    -0.88814    3.65595   12.85926
       O    -1.53895    3.56897   13.58065
      H1    -1.02445    2.96153   14.13899
       H    -0.60651   -2.68498   17.46311
       O     0.04802   -3.21777   17.02482
      H1    -0.35622   -4.04962   16.78855
       H    -4.58515    4.05707   16.73915
       O    -3.63934    3.82736   16.70390
      H1    -3.22637    4.36577   16.00947
       H     2.48737    6.08574   16.76122
       O     3.20322    6.48609   17.24267
      H1     3.10830    7.42772   17.09154
       H    -0.70755   -0.77831   13.17020
       O    -0.93416   -0.50844   12.24113
      H1    -1.66363    0.13128   12.45850
       H     4.32065    3.09638   14.15576
       O     4.38113    2.14097   14.44037
      H1     4.04618    2.10073   15.33944
       H    -7.86407    2.68015   14.98576
       O    -6.95147    3.13674   15.12150
      H1    -7.00992    3.79721   14.33706
       H     4.16810   -0.50055   16.82156
       O     4.23713   -0.66422   15.87232
      H1     5.19479   -0.93680   15.83614
       H    -0.35536    1.16788   15.44651
       O    -0.54675    2.09993   15.73901
      H1    -0.67197    1.98422   16.64753
       H    -3.65363    5.61421   19.27956
       O    -3.83709    4.69115   19.40766
      H1    -3.83292    4.39525   18.46829
       H     1.12352   -1.09735   14.47354
       O     0.26699   -0.89431   14.87645
      H1     0.03026   -1.60868   15.49897
       H    -8.32207   -0.34045   18.28084
       O    -7.87916    0.07500   17.54720
      H1    -7.08084   -0.39512   17.31028
       H     2.41742    1.92587   19.51984
       O     2.73520    1.76548   18.66004
      H1     3.64556    2.12264   18.61096
       H    -7.96152    6.73801   17.09691
       O    -7.30416    6.70095   17.78868
      H1    -7.06305    5.79126   17.71088
       H    -0.84198   -0.22840   18.47560
       O    -1.01827   -1.11389   18.82986
      H1    -0.88853   -1.06684   19.80477
       H    -0.68703    6.25115   18.23841
       O    -0.71415    6.51076   17.27277
      H1    -0.38035    7.41825   17.31485
       H    -5.44231    2.05076   14.84653
       O    -4.61124    1.63374   15.19823
      H1    -4.30508    2.29883   15.80506
       H    -2.07722    4.97202   14.31652
       O    -2.39824    5.73572   14.87339
      H1    -1.87872    5.97590   15.62084
       H     0.98201    6.44605   12.95959
       O     1.05063    7.02154   13.78113
      H1     1.10232    6.43822   14.53753
       H    -1.74268    2.10338   18.75049
       O    -0.92041    1.65763   18.44250
      H1    -0.20873    2.14413   18.87105
       H     0.49252    5.49029   16.29952
       O     1.29737    5.30320   15.74753
      H1     1.61076    4.39070   15.84273
       H     1.07694    2.64413   16.05564
       O     2.02385    2.77950   16.13895
      H1     2.27083    2.45755   17.09393
       H    -3.23480   -5.01039   15.65642
       O    -2.62496   -4.24898   15.69621
      H1    -2.98219   -3.71205   16.43021
       H     5.91813    2.03751   18.06714
       O     5.36116    2.63789   18.56987
      H1     5.70823    2.48170   19.44785
       H    -7.02904    1.48470   20.44268
       O    -6.91061    1.69296   19.46120
      H1    -6.95263    0.86248   18.96927
       H     1.45991   -3.03433   18.26080
       O     1.92561   -3.20806   19.06899
      H1     2.00180   -2.34053   19.48111
       H    -0.01213    1.12134   12.52969
       O     0.34406    1.92390   12.04098
      H1     0.21436    1.74486   11.10122
       H    -5.64093   -1.73653   15.74394
       O    -5.56008   -1.00621   16.36213
      H1    -5.16630   -0.27544   15.88885
       H    -2.59723   -1.93229   18.28476
       O    -3.47046   -2.37035   18.12449
      H1    -3.90517   -1.73913   17.56144
       H    -2.51603    2.05502   13.23771
       O    -2.85801    1.27459   12.70711
      H1    -3.36886    0.81308   13.31539
       H    -6.28818    3.44272   18.03389
       O    -6.18037    4.22202   17.43999
      H1    -6.50865    3.89379   16.59810
       H    -4.19514    7.54089   18.12278
       O    -3.87582    7.37379   19.00610
      H1    -4.65502    7.40392   19.61517

