96
frame 4 | Written by MDAnalysis XYZWriter (release 2.4.3)
       H   -11.80744   14.18990  -10.65835
       O   -12.67752   13.82328  -10.31826
      H1   -13.14520   13.49083  -11.04669
       H   -14.01430   12.20533  -12.99953
       O   -14.24605   11.87966  -12.13975
      H1   -15.08336   12.33397  -12.02309
       H   -15.45362   14.18912  -13.80628
       O   -16.14114   14.81038  -13.55667
      H1   -16.28592   15.30583  -14.39077
       H   -10.90305   17.40615   -9.05288
       O   -10.45717   17.19463   -9.91237
      H1    -9.51787   17.24532   -9.66675
       H   -19.56546   15.16022  -18.11464
       O   -19.39174   14.29431  -18.49479
      H1   -19.14742   13.70140  -17.75186
       H   -18.14122   17.95746  -13.90384
       O   -17.58971   17.50236  -14.55202
      H1   -17.82369   17.89325  -15.39648
       H   -15.70428   17.35559  -18.95322
       O   -15.47645   17.41562  -17.99363
      H1   -15.89907   16.69419  -17.50574
       H   -10.25164   14.24773  -14.26680
       O   -10.63413   13.71682  -13.60660
      H1   -10.08756   12.91525  -13.74701
       H    -8.43684   18.13518  -12.43959
       O    -7.73142   18.22783  -11.81061
      H1    -7.15172   17.48281  -12.11596
       H   -17.08472   13.06714  -13.43019
       O   -17.11395   12.24573  -14.02321
      H1   -17.59321   11.48755  -13.59260
       H   -12.62228   13.80836  -14.02040
       O   -13.49110   13.49062  -14.19341
      H1   -13.38199   13.37956  -15.13656
       H   -16.41073   14.19223  -11.47189
       O   -16.07031   13.52022  -10.85849
      H1   -15.53139   13.94931  -10.20620
       H   -14.44301   17.03522  -11.99628
       O   -14.26160   16.10560  -11.94126
      H1   -14.93511   15.67934  -12.47017
       H   -13.21717   15.91701  -19.80152
       O   -13.39047   15.58992  -18.88567
      H1   -13.80482   16.34831  -18.42968
       H   -12.10228   15.20674  -17.47498
       O   -11.41037   15.67548  -17.04378
      H1   -10.76456   15.06919  -16.68708
       H   -15.01273   19.79587  -11.09772
       O   -15.80020   19.17494  -11.28986
      H1   -16.54375   19.76057  -11.47280
       H    -9.96414   16.35083  -18.41258
       O    -9.28628   16.69891  -19.07840
      H1    -9.28076   17.67751  -19.03302
       H   -19.16789   14.57367  -12.35276
       O   -18.70914   14.38294  -11.52327
      H1   -18.69841   15.24836  -11.07909
       H   -18.29883   12.66948  -15.43643
       O   -18.42653   12.82401  -16.39648
      H1   -18.21037   11.92747  -16.68350
       H   -16.02124   18.97687   -9.69920
       O   -16.20246   18.59215   -8.79585
      H1   -15.84239   19.19584   -8.17767
       H   -18.38975   18.77228  -17.47144
       O   -17.99414   19.39300  -16.81354
      H1   -17.06693   19.47170  -17.08790
       H   -18.71902   17.40967   -9.84200
       O   -18.67035   16.43963   -9.72261
      H1   -17.85513   16.34944   -9.22643
       H   -15.04036   17.15781   -9.13620
       O   -14.57539   16.28308   -9.21612
      H1   -14.27636   16.20258  -10.15429
       H   -11.99843   16.62845  -15.65724
       O   -11.95217   17.00371  -14.75195
      H1   -12.84897   17.32872  -14.60912
       H   -13.41585   12.84829  -17.83643
       O   -13.89053   12.84088  -17.00057
      H1   -14.60768   13.46746  -17.13649
       H   -10.42774   18.06054  -14.33282
       O    -9.51767   18.38282  -14.32290
      H1    -9.58797   19.28186  -13.95507
       H   -10.49483   20.11400  -11.69897
       O   -10.89793   19.85435  -10.87346
      H1   -10.86736   18.89756  -10.84416
       H   -10.11148   14.53373  -11.78306
       O   -10.12288   14.48722  -10.84060
      H1   -10.27661   15.44317  -10.52994
       H   -16.03485   18.14746  -14.26311
       O   -15.14624   18.49573  -14.07426
      H1   -15.26784   18.93657  -13.23806
       H    -9.47894   18.80186  -16.06564
       O    -9.44462   19.48812  -16.77033
      H1    -8.90203   19.21542  -17.52260
       H   -16.42927   13.89018  -18.21670
       O   -16.22259   14.10464  -17.28240
      H1   -16.93064   13.64644  -16.88706
       H   -15.75885   15.38466   -8.13680
       O   -16.48881   14.95213   -7.59177
      H1   -16.32930   13.97974   -7.46695

