96
frame 4 | Written by MDAnalysis XYZWriter (release 2.4.3)
       H    -1.94081  -16.83517  -10.38801
       O    -2.83673  -16.45691  -10.26294
      H1    -2.73999  -15.51911  -10.13839
       H    -4.81517  -11.75821  -15.70066
       O    -4.58277  -12.64508  -15.36120
      H1    -4.15829  -13.17639  -16.09038
       H    -6.70022  -10.24509  -10.81041
       O    -6.61860   -9.70696  -11.62568
      H1    -5.73273   -9.39809  -11.57051
       H     0.86440  -10.58904  -10.95521
       O     1.07585   -9.97887  -11.68622
      H1     0.31593   -9.93472  -12.26041
       H    -0.15650   -6.66918  -10.81488
       O    -0.94958   -6.44404  -10.26762
      H1    -1.79686   -6.39940  -10.76052
       H    -6.26044  -14.87338  -12.13215
       O    -5.29913  -14.64523  -12.00661
      H1    -5.35568  -13.71158  -12.26474
       H    -0.99041  -14.30648   -5.81079
       O    -0.57756  -13.37825   -5.65175
      H1    -1.27066  -12.84115   -6.10969
       H    -5.00735  -15.73700  -14.53052
       O    -5.66901  -15.26923  -15.07421
      H1    -5.09767  -14.46970  -15.15187
       H    -7.49174  -12.59857  -14.13420
       O    -8.36238  -12.66613  -14.57034
      H1    -8.23521  -12.57190  -15.53285
       H    -1.15694  -16.74105  -12.73810
       O    -1.15704  -17.53034  -13.24332
      H1    -0.57872  -18.01618  -12.61351
       H    -3.67327   -9.45381  -12.45051
       O    -3.94194   -9.61034  -11.52844
      H1    -3.34068   -9.16043  -10.93746
       H     0.48562  -15.07899  -13.83383
       O     0.85135  -15.60033  -14.56415
      H1     0.28561  -16.39711  -14.55203
       H    -5.82159  -11.87615  -13.95715
       O    -6.22318  -12.12507  -13.10343
      H1    -6.48439  -11.34490  -12.62015
       H    -3.90484  -13.87219   -6.73838
       O    -4.08778  -14.81214   -6.55634
      H1    -4.30326  -14.85949   -5.61636
       H    -4.32118  -14.23322  -10.05342
       O    -3.46285  -13.81666   -9.78445
      H1    -3.69068  -13.18608   -9.04120
       H    -3.40111  -10.46649  -17.24088
       O    -2.70152  -10.73993  -16.65629
      H1    -3.04602  -10.56625  -15.78230
       H     0.34206  -13.98948  -11.44211
       O     0.05374  -14.24514  -12.35471
      H1    -0.34884  -13.51302  -12.83957
       H    -1.72814   -7.23876  -14.16802
       O    -1.11986   -7.01465  -13.44204
      H1    -0.63338   -7.85764  -13.37089
       H    -1.04185  -11.76158  -10.39303
       O    -0.17399  -11.73780   -9.91774
      H1     0.24994  -12.61167   -9.80985
       H    -3.78520   -8.57673  -14.33359
       O    -3.31750   -9.34574  -14.05252
      H1    -2.39671   -9.05116  -14.00504
       H    -4.39410   -5.89940   -9.38875
       O    -4.51258   -6.75209   -8.97780
      H1    -4.04170   -7.32511   -9.54647
       H    -2.75983  -11.54755   -7.56062
       O    -3.44986  -12.29352   -7.63803
      H1    -4.27023  -11.89998   -7.29929
       H    -0.59902  -11.16438   -8.08443
       O    -1.30875  -10.53926   -7.73034
      H1    -1.08652  -10.17049   -6.92055
       H    -3.04448  -11.23580  -11.20802
       O    -2.55057  -12.03209  -11.48159
      H1    -2.84970  -12.77276  -10.91593
       H    -6.88346  -14.00598  -10.64345
       O    -6.98354  -14.30820   -9.73970
      H1    -7.90289  -14.60278   -9.71252
       H     2.23540  -14.52651  -10.50694
       O     1.38897  -14.11534  -10.22304
      H1     1.10659  -14.58830   -9.38060
       H    -6.07748  -10.48042   -6.28702
       O    -5.78925  -11.20192   -6.84801
      H1    -6.39619  -11.28469   -7.62659
       H    -1.70158  -12.93020  -14.73043
       O    -1.21655  -12.53230  -14.00764
      H1    -1.91551  -12.33286  -13.39025
       H    -1.91177   -7.96528   -9.29657
       O    -2.52567   -8.73573   -9.30028
      H1    -2.05025   -9.50140   -8.93057
       H    -7.61096  -11.94455   -9.15308
       O    -6.99472  -11.19378   -9.30108
      H1    -7.42630  -10.50225   -8.80722
       H    -0.73057  -10.72139  -14.05775
       O    -0.47502   -9.81686  -13.86948
      H1     0.06327   -9.51292  -14.60221
       H     2.06457  -13.05577  -12.24717
       O     2.76399  -12.45486  -11.92389
      H1     2.45392  -11.50569  -12.02714

