96
frame 4 | Written by MDAnalysis XYZWriter (release 2.4.3)
       H    -8.21926    1.28508   12.13443
       O    -7.83009    0.41708   12.27728
      H1    -7.32332    0.48592   13.10509
       H   -11.36436   -6.99090   17.84625
       O   -12.30956   -7.02987   18.09750
      H1   -12.49517   -6.45931   18.85681
       H   -13.02334    2.34489   16.83421
       O   -12.19623    2.79226   16.60419
      H1   -11.62238    2.30612   17.20217
       H   -13.95667   -0.68782   14.88599
       O   -13.18199   -0.93147   14.46374
      H1   -13.36092   -1.50716   13.70523
       H    -7.90192   -4.94860   18.35546
       O    -7.88506   -5.17612   19.28625
      H1    -7.13912   -5.76099   19.36123
       H    -9.69292   -3.45927   16.44186
       O   -10.61528   -3.73950   16.38817
      H1   -10.72325   -4.66864   16.25763
       H    -9.30220   -8.37557   16.95229
       O    -9.47468   -9.23270   16.48341
      H1    -9.89624   -8.88666   15.70103
       H    -8.08747   -4.08626   13.31612
       O    -7.51945   -3.70708   14.00733
      H1    -6.62684   -4.00721   13.68105
       H    -7.55343    1.58579   14.95357
       O    -6.85040    2.12653   14.67027
      H1    -7.15720    2.92551   14.11819
       H   -18.03585   -5.64986   18.11705
       O   -17.16057   -5.16028   17.99590
      H1   -16.82945   -4.96813   18.88195
       H   -14.23269    3.06131   17.82605
       O   -14.78749    2.29570   17.44734
      H1   -14.79098    1.49159   18.01401
       H    -9.59618   -1.89921   19.83542
       O   -10.42696   -1.40810   19.62649
      H1   -10.80695   -1.87842   18.88513
       H    -6.60785   -0.82394   19.21076
       O    -6.86241   -0.51019   18.35299
      H1    -6.10494   -0.61080   17.74004
       H   -10.76987    0.27341   18.18352
       O   -10.49411    1.13264   17.83415
      H1    -9.62826    1.40291   18.18255
       H    -5.56714   -1.07938   13.47543
       O    -6.23636   -0.78643   14.12644
      H1    -6.94791   -1.42160   14.01721
       H   -14.35618    4.85603   18.89186
       O   -13.68385    4.20399   18.83541
      H1   -12.86114    4.69575   19.02179
       H   -15.06273   -7.24141   19.46015
       O   -15.81525   -7.56730   18.96419
      H1   -16.19476   -6.72762   18.67413
       H   -13.51044   -6.20949   16.93249
       O   -13.90743   -5.55907   16.39587
      H1   -14.79590   -5.67527   16.09830
       H   -12.13394   -1.01729   16.34093
       O   -11.97722   -1.45691   17.18409
      H1   -11.57074   -2.28190   16.91158
       H   -15.94659   -2.86786   16.61975
       O   -16.77379   -2.88536   16.02920
      H1   -17.46069   -3.27483   16.54469
       H    -7.98153   -1.77393   17.34355
       O    -8.31857   -2.43958   16.66845
      H1    -8.56075   -1.83103   15.89653
       H    -8.03016    2.02791   19.79798
       O    -8.05475    1.77881   18.89341
      H1    -7.51533    0.95646   18.84309
       H    -7.56390   -4.42459   15.98249
       O    -7.58744   -5.28123   16.43054
      H1    -7.36127   -5.94073   15.78255
       H    -9.35654   -6.63703   18.43347
       O    -9.51166   -6.67794   17.45499
      H1    -8.85188   -6.13911   17.03940
       H    -9.87576    0.49165   14.83956
       O    -9.06349    0.40760   15.32175
      H1    -9.34923    0.76280   16.19407
       H    -4.97043   -1.25110   15.77543
       O    -4.61414   -1.14784   16.65396
      H1    -4.10687   -0.34726   16.56294
       H    -3.26735   -2.52657   19.15072
       O    -4.07764   -3.03933   18.96869
      H1    -4.23299   -2.73554   18.04538
       H   -11.64068    4.61654   16.82933
       O   -11.62105    5.57080   16.80252
      H1   -11.30603    5.86182   15.97755
       H    -6.85982    3.20923   17.82357
       O    -6.46597    3.59427   17.02286
      H1    -6.78531    3.08856   16.27775
       H   -14.15801   -3.86606   17.17821
       O   -14.47232   -3.02163   17.53643
      H1   -13.77093   -2.39319   17.53777
       H   -13.73888   -4.71858   14.74323
       O   -14.01532   -4.58312   13.81250
      H1   -14.84445   -4.11303   13.82819
       H   -12.04000    1.68021   14.78302
       O   -11.81970    1.35277   13.91647
      H1   -12.35908    0.49714   13.92894

