96
frame 4 | Written by MDAnalysis XYZWriter (release 2.4.3)
       H   -10.65615  -16.51821   -3.79895
       O    -9.89102  -16.02266   -4.12713
      H1    -9.17174  -16.61562   -4.30465
       H   -15.97800  -12.06378   -0.66182
       O   -16.57190  -12.04443   -1.41291
      H1   -16.95362  -12.91809   -1.43645
       H    -9.30729  -18.95618    1.56198
       O    -9.46999  -19.64370    0.88381
      H1   -10.37420  -19.93897    1.14589
       H   -10.72445  -18.72503    5.38871
       O   -10.01763  -18.25466    4.91679
      H1    -9.33997  -18.94981    4.84980
       H   -10.14145  -16.99202    1.96904
       O    -9.40921  -17.44986    2.42752
      H1    -9.75056  -17.58705    3.34119
       H    -9.01221  -13.31834    3.58430
       O    -8.98722  -12.49272    3.11409
      H1    -8.53326  -12.44132    2.26583
       H   -11.82449  -12.56552   -0.08960
       O   -10.91620  -12.28441   -0.37914
      H1   -10.98230  -11.38264   -0.56712
       H   -16.07071  -17.83229   -0.24478
       O   -15.69478  -17.02756    0.15987
      H1   -15.20831  -17.25417    0.91017
       H    -9.75629  -19.05798   -0.84039
       O    -9.72905  -18.72520   -1.77827
      H1   -10.53219  -18.31234   -1.93864
       H   -15.44855  -17.45458    3.73783
       O   -15.33846  -18.05163    2.93018
      H1   -14.88770  -18.87393    3.28710
       H   -11.38438  -11.19865    4.69494
       O   -11.17063  -11.15281    3.71244
      H1   -10.37371  -11.72835    3.64405
       H   -15.82530  -12.84120    1.39494
       O   -15.14997  -12.59400    0.79644
      H1   -14.59738  -11.90202    1.22318
       H   -12.22205  -16.69741    2.06000
       O   -11.65626  -16.61460    1.25325
      H1   -11.84764  -15.67842    1.03479
       H   -10.26373  -14.24098    5.28697
       O    -9.27782  -14.17732    5.37133
      H1    -9.11035  -14.54071    6.28839
       H    -7.21208  -16.73741    2.53432
       O    -6.52738  -16.17662    2.13164
      H1    -7.05377  -15.67600    1.53306
       H    -9.78604  -14.46558   -2.83015
       O    -9.57403  -13.59268   -2.52232
      H1   -10.44368  -13.18994   -2.20319
       H    -6.54953  -13.03245    3.84573
       O    -6.08327  -13.66688    3.30482
      H1    -6.58555  -14.47476    3.05654
       H   -13.90423  -10.01433    2.13445
       O   -13.47544  -10.85023    2.26001
      H1   -12.65152  -10.80960    2.72654
       H   -18.08912  -15.18157   -0.56314
       O   -18.11868  -15.95090    0.03294
      H1   -17.21689  -16.15098    0.24976
       H   -14.39162  -12.15062    3.64487
       O   -14.68484  -12.64622    4.39085
      H1   -14.46168  -12.09208    5.17091
       H    -8.20756  -15.05327   -0.59440
       O    -7.79020  -14.78525    0.22605
      H1    -8.03196  -13.84275    0.34090
       H    -7.90633  -11.37571   -0.22639
       O    -8.20347  -12.05503    0.38237
      H1    -9.14842  -12.07226    0.07286
       H   -16.18220  -17.09696    5.65955
       O   -15.80889  -16.42230    5.13080
      H1   -15.16164  -16.05873    5.71813
       H   -13.75682  -12.91985   -3.95050
       O   -13.10212  -13.62033   -4.24967
      H1   -12.35743  -13.12713   -4.66739
       H   -13.03990  -14.37249   -0.77913
       O   -12.81822  -14.04325    0.17565
      H1   -13.61960  -13.59457    0.44381
       H    -8.46802  -17.46790   -1.96399
       O    -7.64993  -16.94804   -2.13566
      H1    -7.75608  -16.37498   -2.93773
       H   -12.92054  -13.62280    5.26780
       O   -12.08744  -13.99458    5.64403
      H1   -12.49567  -14.75076    6.12800
       H   -12.39465  -17.71440   -2.00800
       O   -11.93249  -17.33904   -2.76191
      H1   -12.29245  -17.77318   -3.51874
       H   -13.92044  -15.71087    3.68015
       O   -12.96327  -15.90829    3.72041
      H1   -12.50299  -15.02475    3.97979
       H   -15.33757  -15.83700   -3.00237
       O   -16.01249  -16.06661   -3.63815
      H1   -15.72898  -16.83332   -4.08127
       H   -13.34462  -14.55237   -3.00664
       O   -13.65583  -15.09014   -2.24004
      H1   -13.03055  -15.80245   -2.15145
       H   -12.59712  -17.50276    0.20145
       O   -13.18922  -17.86634   -0.52390
      H1   -14.06590  -17.40884   -0.41728

