96
frame 4 | Written by MDAnalysis XYZWriter (release 2.4.3)
       H    18.63485  -16.85033  -11.48073
       O    17.89476  -16.57865  -12.09315
      H1    18.26846  -15.78551  -12.40965
       H    18.82181   -9.06952   -8.29295
       O    18.35567   -9.86140   -8.14001
      H1    17.67352   -9.63617   -7.47235
       H    16.70562  -10.78595  -16.14312
       O    17.63022  -10.90614  -16.28969
      H1    18.00734  -10.08534  -15.86415
       H    10.83076   -9.53974  -11.30469
       O    10.27676   -8.75563  -11.35652
      H1    10.90959   -8.09001  -11.75125
       H    16.35572  -14.18093  -14.23947
       O    15.45984  -14.41083  -13.88933
      H1    15.27149  -15.31811  -14.08981
       H    17.05092   -5.19105  -14.32392
       O    16.54803   -6.05546  -14.26814
      H1    15.80381   -5.85736  -13.72074
       H    17.89393  -12.51906  -15.52696
       O    17.75669  -13.35870  -15.05302
      H1    18.33195  -13.97477  -15.52817
       H    13.22698  -11.23724   -9.90284
       O    13.24752  -10.99597   -8.92441
      H1    14.19409  -10.81366   -8.80614
       H    14.36768  -12.58212  -12.46518
       O    14.55145  -12.36314  -11.56741
      H1    15.39535  -12.81916  -11.47557
       H    18.68165   -7.91739  -14.45817
       O    18.90100   -8.51112  -15.20588
      H1    19.03490   -7.82496  -15.87512
       H    19.17310   -7.17179  -11.91249
       O    19.27833   -6.18961  -11.75280
      H1    18.42034   -5.96234  -11.36480
       H    12.88681   -9.32615   -8.95999
       O    12.95951   -8.39108   -8.93143
      H1    13.45279   -8.32725   -8.15099
       H    14.09458  -13.67323   -6.23664
       O    14.85865  -13.61249   -6.82775
      H1    15.28251  -12.77231   -6.60131
       H    19.61379  -12.92617   -9.20123
       O    19.37521  -13.49203   -9.98408
      H1    19.11925  -14.36653   -9.64458
       H    14.21827  -13.93543   -8.42789
       O    13.99613  -14.18161   -9.35294
      H1    13.70336  -13.34164   -9.82755
       H    11.31117  -11.59959  -10.62967
       O    11.79503  -11.13857  -11.31548
      H1    11.86745  -11.83968  -12.00660
       H    14.00449  -10.24764  -13.91441
       O    14.01140   -9.49732  -13.28111
      H1    13.68287   -9.90782  -12.47188
       H    12.80605  -12.22561  -14.88163
       O    13.36759  -12.41699  -14.13003
      H1    13.92012  -13.21488  -14.28730
       H    15.92189  -15.09194   -9.67012
       O    16.23653  -15.94532   -9.91597
      H1    16.81898  -15.76773  -10.68277
       H    15.88708   -7.04713  -10.59149
       O    15.07408   -6.63547  -10.25803
      H1    14.46530   -7.32573  -10.04610
       H    12.68689   -6.66396  -12.80166
       O    12.21737   -7.43938  -13.08030
      H1    12.97268   -8.08340  -13.22947
       H    18.09743   -6.33615   -8.51335
       O    18.09214   -6.97528   -9.21545
      H1    18.87428   -6.68901   -9.68096
       H    19.03051   -9.61466  -12.51000
       O    18.60926   -8.81481  -12.27357
      H1    17.68752   -9.07689  -12.13831
       H    14.54193   -5.69287  -11.65647
       O    14.24552   -5.52154  -12.54517
      H1    13.90602   -4.59163  -12.54845
       H    14.09746  -10.50702  -16.43880
       O    14.83437  -10.27818  -15.81922
      H1    15.04754   -9.31236  -15.85702
       H    16.74007  -10.38761   -8.98909
       O    15.91036  -10.76672   -9.18563
      H1    15.93628  -10.75058  -10.15334
       H    16.32074   -7.41137  -16.07601
       O    15.62329   -7.75835  -16.63840
      H1    14.97085   -7.06866  -16.57051
       H    12.02200  -14.33028  -12.07825
       O    11.42574  -13.67308  -12.45196
      H1    11.85838  -13.22458  -13.18661
       H    18.15428  -12.96498  -11.17257
       O    17.30611  -12.82345  -11.66911
      H1    17.54188  -12.98964  -12.58840
       H    15.39493  -16.62845  -11.67297
       O    14.73531  -17.21900  -12.10849
      H1    14.45331  -17.85431  -11.41278
       H    16.40025  -11.02418  -12.08207
       O    16.23348  -10.07713  -11.81670
      H1    15.54216   -9.81858  -12.45575
       H    12.90834  -15.27933  -10.18543
       O    12.43156  -15.70834  -10.94107
      H1    13.10354  -16.18100  -11.51461

