96
frame 3 | Written by MDAnalysis XYZWriter (release 2.4.3)
       H    -4.97849   -4.29080  -11.11781
       O    -4.72100   -4.35821  -10.17498
      H1    -4.11140   -3.67648   -9.95219
       H    -4.71053   -2.72493   -7.09226
       O    -4.04855   -2.08798   -7.48896
      H1    -4.42061   -1.55498   -8.18887
       H     2.89133    2.23873  -10.13532
       O     3.86087    2.22435  -10.30966
      H1     4.29320    2.46532   -9.51942
       H    -4.29121   -0.78441   -5.77694
       O    -4.75446   -0.25240   -5.10741
      H1    -4.09412    0.39577   -4.91838
       H    -0.78229    4.48362   -8.95504
       O    -1.29660    5.06197   -8.34517
      H1    -1.35870    5.79081   -8.98295
       H     0.19667    1.89968   -8.39048
       O     0.89164    2.26307   -8.92830
      H1     0.76274    2.39003   -9.84605
       H     0.52128   -3.96834   -9.97285
       O     0.48339   -4.18880   -9.00342
      H1     0.40976   -5.19948   -8.98428
       H    -0.81590    4.85220  -13.70453
       O    -1.30341    4.03255  -13.86032
      H1    -1.62014    3.73924  -13.00687
       H    -0.31104   -3.89103   -6.08496
       O     0.17498   -3.18304   -6.40806
      H1     0.30589   -3.33110   -7.33183
       H    -6.44378    1.62525   -7.89247
       O    -6.28133    0.71458   -7.61124
      H1    -5.83524    0.83842   -6.74455
       H     1.41739    2.87430  -14.96328
       O     2.06614    2.70470  -14.22131
      H1     1.49140    2.56484  -13.45337
       H    -1.94679   -2.55690  -13.92393
       O    -1.24506   -2.70659  -14.47561
      H1    -0.84387   -3.54902  -14.22721
       H     0.39476    2.31751  -12.30337
       O     0.87650    2.72456  -11.59054
      H1     0.66590    3.63404  -11.48161
       H     1.69704    5.56809  -10.12394
       O     0.96426    5.53777  -10.77063
      H1     1.25463    6.01745  -11.56847
       H    -1.45962   -3.73186   -8.79184
       O    -2.23757   -3.22971   -9.14460
      H1    -2.80728   -3.00438   -8.36440
       H    -7.47666   -2.84246  -11.31673
       O    -7.01084   -1.99855  -11.17539
      H1    -7.26999   -1.42388  -11.88734
       H     3.08366   -1.77724  -12.38986
       O     3.06191   -2.20342  -13.25997
      H1     3.00291   -3.16316  -13.16790
       H     0.41119    0.10120  -13.39075
       O    -0.17916    0.91077  -13.35928
      H1    -0.63237    0.88530  -12.50086
       H     3.50833    0.67173  -11.30056
       O     3.62058   -0.25386  -11.60694
      H1     3.97862   -0.06550  -12.48852
       H    -2.63105    3.09304  -10.91442
       O    -2.05846    3.82374  -11.04669
      H1    -2.77448    4.57248  -10.98663
       H    -2.83051    0.67252  -11.45422
       O    -1.89714    0.78319  -11.41242
      H1    -1.57991    0.37205  -10.61375
       H    -0.18866    1.98883  -16.05879
       O     0.18454    2.89073  -16.17502
      H1    -0.40394    3.48957  -15.73796
       H     2.57180    0.72796   -6.37657
       O     2.53339    0.60984   -7.36732
      H1     2.08056    1.34806   -7.80479
       H     1.85753   -1.69474  -14.17777
       O     1.08622   -1.22901  -14.67523
      H1     0.36037   -1.87757  -14.76098
       H    -4.01464    0.79932  -10.01143
       O    -4.21584    1.73535  -10.32341
      H1    -5.17671    1.75106  -10.19050
       H    -0.99662   -0.22283   -8.40317
       O    -1.13667   -0.71689   -9.25326
      H1    -1.46257   -1.58703   -9.02928
       H    -1.32023   -0.09785  -16.26852
       O    -1.77335    0.52948  -15.69597
      H1    -1.37575    0.39393  -14.83401
       H    -5.04795    5.65463  -10.45099
       O    -5.95040    5.37398  -10.24589
      H1    -5.84882    4.43399  -10.11234
       H    -0.49569   -2.04274  -10.63519
       O     0.05679   -2.61173  -11.26575
      H1    -0.27720   -2.34103  -12.09631
       H    -5.64418   -0.31809   -8.89015
       O    -5.04945   -0.75844   -9.48861
      H1    -5.58014   -1.26610  -10.09089
       H    -3.08538    3.71777   -7.96785
       O    -3.38532    2.81341   -7.85793
      H1    -3.72301    2.53614   -8.72573
       H    -1.12730    0.91539   -6.23088
       O    -1.08852    1.21025   -7.17442
      H1    -1.84528    1.69779   -7.38242

