96
frame 3 | Written by MDAnalysis XYZWriter (release 2.4.3)
       H   -18.12477    6.19865    9.45932
       O   -17.87626    6.30830   10.35394
      H1   -18.59037    6.64577   10.93255
       H   -10.92461    5.51932   12.47656
       O   -11.83727    5.76561   12.68073
      H1   -11.88343    6.75770   12.66689
       H   -16.50393    5.43831    7.36425
       O   -15.61277    5.02806    7.31202
      H1   -15.40721    4.85962    8.23905
       H    -9.75778    7.78205    7.33829
       O    -8.80756    7.57076    7.34471
      H1    -8.76165    6.93351    8.02209
       H   -13.74752    3.90196   11.98823
       O   -13.56299    2.94962   12.10652
      H1   -13.10474    2.78196   12.96123
       H   -16.65535    3.10990    7.87981
       O   -17.38201    2.76683    8.43332
      H1   -18.21040    3.23926    8.16292
       H   -14.14482    9.75771    6.93183
       O   -13.73136   10.08860    7.72167
      H1   -12.79576    9.96236    7.51456
       H   -11.16815    8.00969   10.55023
       O   -11.49959    7.59950    9.70292
      H1   -12.46836    7.78471    9.76024
       H   -16.51784    4.93857   10.33876
       O   -15.87802    4.28210   10.06227
      H1   -16.32397    3.58943    9.60168
       H   -14.83396    7.48687    9.26808
       O   -14.14034    7.98386    9.72713
      H1   -14.09903    8.79635    9.22245
       H   -10.28763    6.25213    3.75468
       O    -9.46488    6.67258    3.45294
      H1    -8.75952    6.60761    4.10996
       H   -10.69272    4.76485    5.88309
       O   -10.07976    4.52566    6.56307
      H1   -10.43295    5.04275    7.29180
       H   -11.81128    8.08375    7.44170
       O   -11.25189    8.64793    6.89236
      H1   -11.82677    8.81068    6.15718
       H   -13.39332   10.40733   11.50504
       O   -13.73441   10.65194   10.65680
      H1   -14.60050   10.25662   10.62195
       H   -12.94110    1.81562   11.04236
       O   -12.35602    1.30042   10.40343
      H1   -12.90159    0.51729   10.13196
       H   -11.54165    6.27775    5.76495
       O   -11.77679    5.95382    4.85328
      H1   -12.54510    5.38351    4.99981
       H   -13.03410    7.00573    3.17423
       O   -13.55149    7.34184    2.49540
      H1   -13.05637    7.14276    1.69479
       H   -14.79521    8.50270   11.79229
       O   -14.96394    8.54179   12.75462
      H1   -14.72600    7.66938   13.07042
       H   -10.50601    2.58699    7.29113
       O   -10.66621    1.73221    7.62251
      H1   -10.98816    1.83976    8.52563
       H    -7.25533    5.42256    5.31096
       O    -7.62651    6.31079    5.24119
      H1    -8.01718    6.54691    6.08822
       H   -12.28193   -0.76535    8.15005
       O   -12.83730   -0.02819    7.81382
      H1   -12.15464    0.61425    7.59837
       H   -11.44577    5.39336    9.72970
       O   -11.10958    4.63386    9.26674
      H1   -11.35770    3.95964    9.94305
       H   -17.91414    7.17847    7.53059
       O   -18.20473    6.28417    7.67270
      H1   -19.03827    6.29459    7.27416
       H   -13.40749    3.25212    4.47949
       O   -13.55154    3.89822    5.20037
      H1   -14.51579    3.88086    5.26877
       H    -8.81445    5.58640   10.06038
       O    -8.22639    5.82529    9.36660
      H1    -7.56842    6.31138    9.81553
       H   -15.21402    6.63869    2.45749
       O   -16.05502    6.30799    2.79461
      H1   -16.36143    5.63501    2.17037
       H   -15.63537    6.17416    6.03577
       O   -15.98033    6.85779    5.45099
      H1   -15.92621    6.54947    4.49704
       H    -8.76431    4.59566    3.33585
       O    -9.15845    3.73903    3.49250
      H1    -8.97744    3.64957    4.45638
       H   -14.42103    8.57592    5.17550
       O   -13.49300    8.85343    5.25613
      H1   -13.17245    9.20540    4.38954
       H   -10.17220   11.84115    8.10907
       O    -9.80776   11.34307    7.35911
      H1   -10.10218   10.43126    7.46345
       H    -8.30648    9.66597   10.36320
       O    -9.27211    9.51990   10.50873
      H1    -9.49284    8.84705    9.89777
       H   -13.86955    5.77230    7.34587
       O   -12.96883    6.05229    7.44195
      H1   -12.48654    5.46544    8.02466

