96
frame 5 | Written by MDAnalysis XYZWriter (release 2.4.3)
       H     6.32960   -1.96411    3.01429
       O     6.04506   -1.33869    2.38166
      H1     6.64623   -0.53397    2.39571
       H     0.39832    3.15028    2.48139
       O     0.12583    4.09531    2.25866
      H1     0.88832    4.50532    1.80872
       H     2.02476    5.09623   -0.05602
       O     2.73161    4.43429   -0.01677
      H1     2.37732    3.59263    0.21179
       H     1.47512    1.59335   -0.91072
       O     1.85277    1.70077   -0.04078
      H1     2.78450    1.40977   -0.04920
       H     4.04077    5.08920   -5.42027
       O     3.91715    5.89090   -5.95852
      H1     3.71200    5.63372   -6.87021
       H    10.28302    3.16893   -1.71609
       O    10.38738    4.11539   -2.00828
      H1    11.29407    4.19296   -2.25648
       H     0.42775    7.22972    0.71169
       O     1.22546    6.74159    0.99024
      H1     1.65270    7.39271    1.56705
       H     5.17458    2.73456    0.19686
       O     5.83897    3.11520   -0.39173
      H1     5.35327    3.76380   -0.99683
       H     4.28276    4.00503   -3.66507
       O     4.21042    3.59421   -4.54633
      H1     3.52736    2.96172   -4.40453
       H     6.47673    0.64237   -2.44873
       O     5.71135    0.02041   -2.54261
      H1     5.50113   -0.28931   -1.69757
       H     1.86934    4.23127   -3.24344
       O     1.87792    3.44584   -2.66931
      H1     2.41982    3.75455   -1.93267
       H     1.85522    7.05597   -1.04877
       O     2.54196    7.14171   -1.79238
      H1     2.06582    6.71593   -2.49878
       H    10.53829    5.03638    1.10627
       O    10.49813    4.14502    0.84521
      H1    10.52662    4.25066   -0.13856
       H     7.28323    6.27644    4.10419
       O     6.71783    5.67241    3.64451
      H1     7.16490    5.40280    2.83214
       H     6.52175    9.04160   -1.02586
       O     5.64360    9.02484   -1.39304
      H1     5.61205    9.96599   -1.64544
       H     7.74104    7.02639   -1.25924
       O     8.51954    6.73086   -0.73613
      H1     8.12559    6.03837   -0.14620
       H     7.19433    1.49824    1.51503
       O     6.42971    1.39776    2.00973
      H1     6.60014    1.86406    2.80401
       H    10.44882    1.08751   -1.56944
       O     9.74757    1.68865   -1.25585
      H1     9.04125    1.62983   -1.90654
       H     4.18563    0.32626   -4.38383
       O     3.25283    0.60010   -4.54300
      H1     2.70506    0.16926   -3.86390
       H     5.51664    4.88971   -6.40584
       O     6.15440    4.43336   -6.89456
      H1     6.55357    3.77134   -6.29253
       H    -1.18059    2.08541   -1.99471
       O    -0.63113    1.86317   -2.76242
      H1     0.16003    2.35482   -2.51364
       H     7.58794    2.42002   -3.74968
       O     7.65109    2.06176   -2.84658
      H1     6.99024    2.48345   -2.25294
       H     2.52023    5.94139   -4.67360
       O     1.80624    5.79504   -4.05848
      H1     1.03265    6.22404   -4.41443
       H     4.35048    5.54106   -1.29244
       O     4.91137    5.16341   -1.95336
      H1     5.59622    5.83137   -2.18860
       H     6.17935    7.58983   -2.30379
       O     6.64361    7.07952   -2.95440
      H1     6.38727    7.46802   -3.82400
       H     8.11523    2.00390   -6.37017
       O     7.86424    2.59126   -5.59094
      H1     8.50818    3.29711   -5.53863
       H     5.19743    0.80012    0.61625
       O     4.54394    0.30935    0.11973
      H1     4.18630   -0.32893    0.78271
       H     4.13006    7.43289    4.73938
       O     4.44366    7.78486    3.90230
      H1     4.77511    6.99248    3.42093
       H     9.20240    6.86327   -3.96434
       O     9.64849    7.73307   -4.09267
      H1     9.12194    8.29221   -3.54763
       H     7.08218    4.22756    0.37642
       O     7.73636    4.73247    0.86669
      H1     8.56112    4.18943    0.89608
       H     9.16706    4.54423   -3.27940
       O     8.66006    5.04003   -3.90895
      H1     7.94183    5.43122   -3.43577
       H     9.44153    0.18715    0.02231
       O     8.89880   -0.52892    0.36413
      H1     9.45373   -1.07178    0.97271

