96
frame 4 | Written by MDAnalysis XYZWriter (release 2.4.3)
       H    -0.52526   11.07837    8.37140
       O    -1.39022   11.29975    8.57147
      H1    -1.34485   11.43237    9.55387
       H    -2.20749   13.46874    2.32226
       O    -2.44227   14.33172    2.69401
      H1    -3.29634   14.62860    2.35751
       H    -4.82839   18.45829    4.61695
       O    -5.66307   18.00377    4.39339
      H1    -5.61706   17.88639    3.41596
       H    -7.65885   16.20138    6.24443
       O    -8.15681   15.60703    5.60633
      H1    -7.52772   15.26883    5.01560
       H    -6.39738   12.27322    7.46783
       O    -5.91084   12.93655    7.96531
      H1    -6.45065   13.73342    7.90176
       H    -2.82790   20.10580    2.77662
       O    -1.97866   19.65929    2.80412
      H1    -1.99207   18.93181    3.40767
       H    -1.66447   16.07566    9.05574
       O    -1.49723   16.73096    8.41442
      H1    -1.17600   16.13158    7.69483
       H     1.20320   18.74538    3.94422
       O     1.14684   17.79752    3.94333
      H1     1.99042   17.39859    3.83238
       H    -4.25639    9.98538    1.37903
       O    -3.89012   10.53376    2.07243
      H1    -4.52038   11.16337    2.37407
       H    -0.62063   13.12034    8.52429
       O    -0.19902   13.98691    8.77862
      H1     0.04799   14.38573    7.91395
       H     1.97400   13.75447    4.74996
       O     2.14796   14.11312    5.61624
      H1     2.36917   13.36256    6.16325
       H    -0.77921   15.64616    2.12828
       O    -0.00157   16.18155    1.99390
      H1     0.14333   16.78846    2.67830
       H    -0.14222   14.76497    0.41418
       O    -0.55043   14.04646   -0.05403
      H1    -0.34063   14.28747   -1.00039
       H    -6.47839   19.41667    7.60653
       O    -6.24744   18.60261    7.21454
      H1    -6.91848   18.35941    6.58753
       H    -5.64198   14.69075    2.36810
       O    -4.95793   15.24289    1.91428
      H1    -5.32593   16.15695    1.74700
       H    -5.49044   12.09256    3.87933
       O    -5.67303   12.52745    3.00497
      H1    -6.60273   12.33471    2.79175
       H    -0.99606   19.11174    1.37355
       O    -0.51645   18.64465    0.69600
      H1    -0.61338   17.69124    0.84469
       H     0.28155   18.52378   10.35225
       O     0.59332   17.74878    9.86523
      H1    -0.21804   17.27174    9.66275
       H    -0.72799   15.19229    5.94408
       O     0.00251   15.60899    6.40946
      H1     0.86515   15.12833    6.16737
       H    -1.46870   11.43249    3.44919
       O    -1.14352   11.80728    2.58169
      H1    -1.06153   11.09782    1.94377
       H    -3.39033   12.26682    0.65542
       O    -3.04231   12.61632   -0.18963
      H1    -2.17863   12.99505    0.08002
       H    -3.91484   15.37385   11.16261
       O    -3.21889   15.45031   10.45069
      H1    -3.77576   15.71870    9.68000
       H     0.31565   18.35616    8.14861
       O     0.20478   18.66758    7.24653
      H1    -0.20925   17.95613    6.76808
       H    -6.47147   17.60805    1.25226
       O    -5.53693   17.83227    1.61075
      H1    -5.11091   18.55282    1.08898
       H    -1.45931   10.39108    5.97802
       O    -1.92331   10.71441    5.17836
      H1    -2.79622   11.05282    5.48161
       H     0.61951   13.20355    2.79810
       O     1.28339   13.84618    2.98304
      H1     0.92080   14.70565    2.76658
       H    -0.60331   17.41338    5.09278
       O    -1.49398   17.67917    5.26485
      H1    -2.04468   16.82649    5.14612
       H    -5.48317   12.85446    9.65240
       O    -5.38821   12.64927   10.56732
      H1    -5.69047   11.71018   10.55639
       H    -3.45142   17.15823    8.11662
       O    -4.40504   17.11082    8.39729
      H1    -4.83310   17.93903    8.04384
       H    -5.41781   16.52233    5.36084
       O    -5.28723   15.74539    5.91766
      H1    -5.14007   16.17494    6.77088
       H    -3.74619   15.48527    5.29498
       O    -2.77332   15.32495    5.14133
      H1    -2.57977   15.00614    4.29455
       H    -4.57543   12.57744    5.91861
       O    -4.49611   11.79277    5.41919
      H1    -5.34444   11.34443    5.60510

