96
frame 5 | Written by MDAnalysis XYZWriter (release 2.4.3)
       H     6.23089   -7.58783  -12.54539
       O     5.98125   -8.48132  -12.24190
      H1     6.79855   -8.95377  -12.15490
       H     2.75459   -5.33931   -6.04353
       O     2.91994   -4.55222   -6.56725
      H1     2.18359   -4.57028   -7.19714
       H     6.52344   -5.80232  -13.73790
       O     7.32265   -6.31200  -13.70117
      H1     7.80306   -5.92340  -12.95814
       H     7.33124   -4.90232  -15.52974
       O     7.63378   -4.00741  -15.65228
      H1     7.13682   -3.59143  -14.96550
       H     0.61111  -10.04461  -11.34687
       O     0.97706   -9.47538  -12.01961
      H1     0.63489   -9.69324  -12.93025
       H     3.83931   -4.79835  -11.12771
       O     3.48446   -4.91670  -11.99875
      H1     2.67868   -5.40344  -11.90271
       H     0.73605   -4.67412  -11.31785
       O     0.42860   -3.96923  -10.79940
      H1     0.20873   -3.37207  -11.44341
       H    -0.82138   -6.72508  -10.84912
       O    -1.43250   -7.07000  -10.19727
      H1    -2.26180   -6.45229  -10.24634
       H     0.26962   -3.58285   -6.28159
       O     0.60515   -2.71571   -6.63512
      H1     1.16218   -2.87651   -7.45816
       H     3.87799  -10.17567   -8.89404
       O     3.48158   -9.37552   -8.51638
      H1     3.89010   -8.55297   -8.89005
       H     1.03403   -7.65768  -11.77777
       O     1.15150   -6.83685  -11.30262
      H1     1.40039   -7.06486  -10.42060
       H     5.21110   -3.78535   -9.58770
       O     4.54590   -4.46802   -9.73431
      H1     3.83095   -4.20824   -9.11228
       H     5.00496   -0.18593  -10.01197
       O     5.35422    0.45524  -10.67493
      H1     4.87864    0.28380  -11.48303
       H     5.24569   -2.65611  -13.94871
       O     6.09916   -2.30915  -14.11489
      H1     6.00864   -1.51723  -14.60759
       H     7.52565   -4.06037   -8.85915
       O     7.46621   -4.24231   -9.80907
      H1     7.49773   -3.35802  -10.19317
       H     2.18852   -1.73121  -11.76597
       O     2.69594   -2.32070  -12.32193
      H1     2.49562   -3.24083  -12.15485
       H     0.33567   -0.98016  -10.38728
       O     1.23917   -0.74021  -10.61095
      H1     1.57832   -0.15740   -9.93794
       H     5.85017   -7.93110  -15.74952
       O     6.51953   -7.83927  -16.45723
      H1     6.35245   -7.02397  -17.02114
       H     8.78848   -7.20792   -8.18833
       O     7.80931   -6.97036   -8.05275
      H1     7.54998   -6.47114   -8.82640
       H     4.92931  -10.28536  -12.15717
       O     4.85933  -11.12969  -12.49971
      H1     3.91048  -11.36956  -12.42402
       H     4.21630   -7.45808  -14.33677
       O     4.67912   -8.21794  -14.56611
      H1     5.05500   -8.57086  -13.71278
       H     4.32798   -5.15530  -13.34509
       O     4.71664   -5.21550  -14.24870
      H1     3.95408   -5.01341  -14.84287
       H     1.19294   -2.37433  -12.91418
       O     0.20228   -2.23519  -12.95826
      H1    -0.00644   -2.99182  -13.59993
       H     0.17093   -7.26266   -7.80741
       O     0.19351   -6.31744   -7.94045
      H1    -0.48803   -6.08929   -8.56816
       H     2.49440   -3.59537  -15.81340
       O     2.39868   -4.56426  -15.82331
      H1     2.63773   -4.77744  -16.75728
       H     7.43722   -0.93389  -11.11591
       O     7.48124   -1.86202  -11.44732
      H1     6.96095   -1.90775  -12.26017
       H     2.02297   -0.92010  -15.61303
       O     2.52096   -1.67277  -15.21167
      H1     2.40355   -1.68468  -14.25934
       H    10.12585   -5.16174  -11.11291
       O     9.36963   -5.67791  -11.39616
      H1     8.66525   -5.28238  -10.80266
       H    -0.33759   -5.63301  -14.13496
       O     0.39618   -5.03608  -13.95453
      H1     0.90765   -5.04987  -14.76421
       H     4.79845   -6.41638   -9.90199
       O     4.91051   -7.37244   -9.78998
      H1     5.45343   -7.62770  -10.50038
       H     4.08432   -0.94554   -7.40764
       O     3.83171   -0.71168   -8.31550
      H1     3.21674    0.10384   -8.19108
       H     2.67268   -2.18329   -8.99812
       O     2.34048   -3.07071   -8.88337
      H1     1.77486   -3.37679   -9.58647

