96
frame 4 | Written by MDAnalysis XYZWriter (release 2.4.3)
       H     9.32184   18.48959   11.51437
       O     8.85860   17.91452   10.80945
      H1     8.00128   17.67645   11.16595
       H     8.62889   16.46635    2.97651
       O     7.88563   16.65669    3.52017
      H1     7.21044   16.00208    3.54804
       H     7.59035   15.22713    8.63852
       O     7.60151   14.36568    9.11070
      H1     7.14454   13.76861    8.53092
       H    10.51193   18.91683    0.67663
       O    11.38317   19.05430    1.19046
      H1    11.26989   19.57474    1.99301
       H     3.75946   19.62586    4.00196
       O     4.05159   18.70812    4.00376
      H1     4.17164   18.35551    3.04086
       H     3.20237   18.17315    5.69657
       O     3.00105   17.91800    6.60569
      H1     2.15276   18.20997    6.76448
       H     5.99484   18.34999   11.57971
       O     5.83221   17.61562   12.14186
      H1     5.80591   16.77023   11.65514
       H     9.74242   20.15974    8.83948
       O     9.18592   19.42039    8.54977
      H1     9.15625   18.84603    9.35119
       H    12.66197   17.76215    2.23115
       O    12.55565   17.02562    2.79928
      H1    12.05928   17.50026    3.49476
       H     3.30076   15.01503    6.76952
       O     3.73739   15.37467    7.60018
      H1     3.73476   16.30835    7.31280
       H     1.20320   18.74538    3.94422
       O     1.14684   17.79752    3.94333
      H1     1.99042   17.39859    3.83238
       H     4.74619   14.21452    1.75305
       O     4.46197   14.65324    0.95996
      H1     4.24879   15.52457    1.17357
       H    11.19567   16.77778    8.66977
       O    11.34127   17.53490    8.13897
      H1    10.60754   18.16184    8.31628
       H     7.41065   15.29561   -0.95179
       O     8.19740   14.82744   -0.62625
      H1     8.73943   15.33280   -0.03596
       H     1.97400   13.75447    4.74996
       O     2.14796   14.11312    5.61624
      H1     2.36917   13.36256    6.16325
       H     6.05319   18.25898   -1.27179
       O     5.54686   19.11424   -1.14477
      H1     4.65915   19.15044   -1.55427
       H    10.08843   14.45350    5.70552
       O    10.52330   13.58827    5.42667
      H1    11.42844   13.61577    5.79483
       H     7.83548   17.65825    8.12579
       O     7.36882   16.92936    7.70759
      H1     6.74200   17.36322    7.11125
       H     8.80479   16.14928    6.58784
       O     9.06439   15.79992    5.73349
      H1     8.56245   16.23086    5.03579
       H     5.60720   13.86237    3.93668
       O     6.26367   14.39514    4.33855
      H1     6.31899   14.10450    5.23668
       H     2.27787   14.92008   10.36126
       O     2.93273   14.38892    9.86260
      H1     3.09560   14.79751    8.95547
       H    11.65854   19.78432    4.70582
       O    10.90355   19.35821    4.27903
      H1    10.93392   18.49924    4.74737
       H     6.48349   18.27422    0.74016
       O     6.69102   17.33987    0.65466
      H1     6.88687   16.82295    1.44367
       H    11.40845   17.19638    6.37968
       O    11.51067   16.73244    5.51128
      H1    10.69663   16.29171    5.32799
       H     8.58090   17.70869    0.07248
       O     9.30867   18.25318   -0.24441
      H1     8.88676   19.08454   -0.46312
       H     4.83297   17.34749    0.70216
       O     4.10917   17.34148    1.34448
      H1     3.30113   17.66727    0.92838
       H     6.28366   14.92046   10.08585
       O     5.54423   15.47712   10.49224
      H1     4.63106   15.36941   10.14415
       H     5.88510   12.63604    7.04722
       O     6.10368   13.54302    6.92589
      H1     5.26018   13.93578    7.23832
       H    10.87375   16.38641    1.96433
       O    10.00393   15.96751    1.79534
      H1     9.87239   15.09490    2.17981
       H     5.47888   18.58757    4.83758
       O     6.12784   18.57399    5.57882
      H1     6.84051   18.04530    5.12616
       H    10.00279   13.24493    3.46701
       O     9.96333   13.31498    2.45703
      H1    10.88351   13.21374    2.13388
       H     5.68003   12.60918    1.96296
       O     5.12086   12.57962    2.77059
      H1     4.28669   12.27633    2.39480

