96
frame 5 | Written by MDAnalysis XYZWriter (release 2.4.3)
       H     1.78607   15.83209   -1.64028
       O     0.87192   15.62864   -1.38409
      H1     0.29900   15.79718   -2.11717
       H    -1.87399   12.85316    3.16990
       O    -1.99396   13.74134    2.83491
      H1    -2.81491   13.75671    2.33586
       H    -4.75363   18.46550    5.01937
       O    -5.62811   18.10031    4.80340
      H1    -5.54569   17.70456    3.92454
       H    -3.23528    8.64700    0.43779
       O    -4.17639    8.83736    0.62329
      H1    -4.54563    8.90677   -0.28975
       H     1.37943   12.80584   -0.66075
       O     2.04459   12.15693   -0.94507
      H1     2.73345   12.75268   -1.21963
       H    -2.51113   16.36984    8.56986
       O    -1.58013   16.53399    8.18814
      H1    -1.49010   15.81357    7.51729
       H     0.92436   18.45021    4.41313
       O     0.79278   17.48064    4.57318
      H1     1.23924   17.29720    5.40987
       H    -4.07641   10.23845    1.81902
       O    -3.81085   10.96101    2.38625
      H1    -4.63228   11.41535    2.63278
       H    -2.04846   10.84104   -0.84526
       O    -1.72273   10.22262   -1.55755
      H1    -2.48531   10.01555   -1.99993
       H    -7.08543   16.50028   -2.16629
       O    -6.48798   16.45551   -1.36921
      H1    -6.08547   15.52366   -1.45069
       H    -0.41083   14.70375    2.43198
       O     0.39660   15.25559    2.52738
      H1     0.23118   15.91562    3.20328
       H    -0.04387   13.47029    0.93284
       O    -0.18242   13.55423   -0.02918
      H1     0.12980   14.46846   -0.19548
       H    -5.28591   14.16652    1.93446
       O    -4.58557   14.59953    1.43572
      H1    -4.79562   15.54270    1.28538
       H    -5.74372   12.83369    3.79942
       O    -5.94667   12.76742    2.85505
      H1    -6.87180   12.51939    2.81199
       H    -5.65652   12.09060   -1.17428
       O    -5.94040   11.16027   -0.88110
      H1    -5.48637   11.04720   -0.06639
       H    -1.00409   18.39825    1.41751
       O    -0.34945   17.98315    0.81563
      H1    -0.19793   17.07829    1.07885
       H    -1.29835   14.81197    5.42256
       O    -0.68218   14.63690    6.17957
      H1     0.03812   14.11621    5.77153
       H    -1.59343    8.98378    3.57371
       O    -1.55370    9.45754    2.69490
      H1    -2.33868   10.02218    2.71534
       H    -1.11447   11.48353    4.64712
       O    -0.53776   11.67488    3.85263
      H1    -0.67577   10.89739    3.27438
       H    -3.16482   11.95457    0.91492
       O    -2.89611   12.25570    0.04263
      H1    -2.46750   13.07229    0.26571
       H    -1.06173    8.51685    1.21861
       O    -1.12239    8.01458    0.39483
      H1    -1.08443    8.66399   -0.30547
       H    -2.05337   18.02797   -0.32758
       O    -2.66282   18.65993   -0.74165
      H1    -3.39551   18.89263   -0.11187
       H     2.43527   11.89631    2.08978
       O     2.75673   11.20631    1.51043
      H1     2.58697   11.51368    0.60736
       H    -4.84481   13.69783   -2.36301
       O    -5.09405   13.96496   -1.45736
      H1    -4.43833   14.12983   -0.75452
       H    -6.51800   17.07328    1.95956
       O    -5.50642   17.26532    2.14289
      H1    -5.33902   18.04393    1.63961
       H    -2.50513   11.02000    6.15000
       O    -3.04362   11.24023    5.40008
      H1    -3.75962   11.90389    5.58933
       H     0.96005   12.52225    3.62931
       O     1.70364   12.98598    3.23549
      H1     1.40565   13.87352    3.00334
       H     0.59940   12.17819   -2.48488
       O    -0.18399   12.15899   -3.02901
      H1    -0.76419   11.60539   -2.49289
       H    -5.95799   16.76019    6.48302
       O    -5.56835   15.90410    6.46728
      H1    -5.60100   15.50414    7.36626
       H    -4.08032   15.71470    5.39491
       O    -3.34840   15.07381    5.24198
      H1    -3.18321   15.11707    4.32985
       H    -3.12283    8.00634    5.96059
       O    -3.82915    8.55165    5.58322
      H1    -3.42797    9.43698    5.56839
       H    -4.89291   13.70963    5.69033
       O    -5.29008   12.84010    5.44815
      H1    -5.53320   12.38316    6.27348

