96
frame 4 | Written by MDAnalysis XYZWriter (release 2.4.3)
       H   -16.87150   -5.28290   -2.82425
       O   -17.62044   -5.71148   -2.42543
      H1   -18.41013   -5.21284   -2.75315
       H   -15.97800  -12.06378   -0.66182
       O   -16.57190  -12.04443   -1.41291
      H1   -16.95362  -12.91809   -1.43645
       H   -15.54395   -7.35311   -1.98031
       O   -14.94501   -7.21454   -1.23760
      H1   -14.16810   -6.84943   -1.66307
       H   -16.92615   -4.98774   -6.58722
       O   -17.12184   -5.24768   -5.68237
      H1   -17.34082   -4.36073   -5.28729
       H   -15.79734   -8.99307    2.41474
       O   -15.26361   -8.61434    1.71424
      H1   -15.72799   -8.37846    0.95691
       H   -18.02500   -4.36959   -1.07161
       O   -18.57578   -4.14359   -0.32682
      H1   -18.88930   -3.24702   -0.61995
       H   -17.71309  -11.89999    1.58401
       O   -18.38035  -11.25476    1.31213
      H1   -18.30388  -10.47342    1.93780
       H   -14.52538   -4.95430   -3.56494
       O   -15.41198   -4.68320   -3.59388
      H1   -15.62320   -4.97464   -4.54015
       H   -13.34013   -3.66357   -0.47276
       O   -12.40169   -3.54179   -0.62242
      H1   -11.95947   -3.47549    0.21162
       H   -14.96605   -2.75451   -4.37440
       O   -14.96365   -2.17891   -5.11398
      H1   -14.04320   -2.26096   -5.40608
       H   -18.78846   -8.22489   -0.85765
       O   -19.16267   -7.40451   -0.54944
      H1   -18.65478   -6.73401   -0.93531
       H   -14.42106   -4.49342    2.71635
       O   -15.15818   -4.06371    2.31909
      H1   -15.08442   -4.19694    1.36883
       H   -15.82530  -12.84120    1.39494
       O   -15.14997  -12.59400    0.79644
      H1   -14.59738  -11.90202    1.22318
       H   -17.66590   -9.36864    4.33348
       O   -17.36568   -8.97367    3.47596
      H1   -18.17334   -8.55488    3.13015
       H   -15.09472   -7.88991   -4.83048
       O   -14.38880   -7.25816   -4.98258
      H1   -14.01945   -7.51756   -5.84793
       H   -12.90055   -6.33918    3.88422
       O   -13.24724   -5.41795    4.00253
      H1   -13.49327   -5.39921    4.92358
       H   -11.85414  -10.44607   -4.83394
       O   -11.08889  -10.33801   -4.26591
      H1   -11.43916  -10.01748   -3.45773
       H   -16.05850   -9.70199   -5.54649
       O   -15.99387   -9.59833   -4.61058
      H1   -16.89410   -9.43771   -4.29280
       H   -11.56494   -4.26694   -3.55591
       O   -11.12828   -4.47874   -2.72655
      H1   -11.69818   -4.07484   -1.99922
       H   -17.43468  -10.48439   -1.73989
       O   -17.77188   -9.65032   -2.05731
      H1   -18.72182   -9.84978   -2.26273
       H   -13.90423  -10.01433    2.13445
       O   -13.47544  -10.85023    2.26001
      H1   -12.65152  -10.80960    2.72654
       H   -13.06656   -8.46268   -2.60407
       O   -12.75147   -9.31848   -2.25245
      H1   -13.31505  -10.08640   -2.61576
       H   -11.02004   -6.19615    0.98315
       O   -10.23299   -5.92713    1.50075
      H1    -9.43092   -6.14453    0.93558
       H   -15.11946  -10.86333   -3.94441
       O   -14.50930  -11.36467   -3.36265
      H1   -15.11460  -11.67527   -2.67077
       H   -11.38425   -7.84613    3.31407
       O   -12.35819   -7.81180    3.15011
      H1   -12.53723   -7.90046    2.18361
       H   -13.29298   -6.55715   -3.78885
       O   -12.99944   -6.30197   -2.91930
      H1   -12.35167   -5.65390   -2.95262
       H   -19.91436   -7.11843   -5.33707
       O   -19.28359   -6.91958   -6.00070
      H1   -18.54329   -6.47795   -5.57799
       H   -18.04344   -5.44673    1.36783
       O   -17.61108   -6.10038    1.93789
      H1   -16.78510   -6.11012    1.50934
       H   -10.08127   -8.84641   -1.41055
       O   -10.61643   -9.15918   -0.67169
      H1   -11.48315   -9.30706   -1.07415
       H   -12.41212   -5.46160   -5.77383
       O   -12.03402   -4.57516   -5.48187
      H1   -11.13093   -4.56685   -5.96983
       H   -13.19635   -7.58120    0.06424
       O   -12.30710   -7.20598    0.08013
      H1   -11.78158   -7.87868   -0.31004
       H   -15.31922   -4.75040   -1.54057
       O   -15.28987   -4.05758   -0.86831
      H1   -15.52218   -3.28663   -1.44864

