96
frame 4 | Written by MDAnalysis XYZWriter (release 2.4.3)
       H    -8.21926    1.28508   12.13443
       O    -7.83009    0.41708   12.27728
      H1    -7.32332    0.48592   13.10509
       H   -10.38763    6.71893   13.73623
       O   -10.83316    6.81241   14.61350
      H1   -11.52519    7.44587   14.51311
       H   -13.02334    2.34489   16.83421
       O   -12.19623    2.79226   16.60419
      H1   -11.62238    2.30612   17.20217
       H    -4.71651    3.60650   16.93692
       O    -3.80809    3.38973   17.28799
      H1    -3.30442    4.16914   16.98056
       H    -7.55343    1.58579   14.95357
       O    -6.85040    2.12653   14.67027
      H1    -7.15720    2.92551   14.11819
       H    -8.92130    5.34892   12.66048
       O    -9.56363    6.04719   12.42714
      H1   -10.35081    5.56347   12.08431
       H    -3.71978    6.04668   18.86540
       O    -3.84541    5.18839   19.28091
      H1    -3.69640    4.49217   18.56519
       H    -9.59618   -1.89921   19.83542
       O   -10.42696   -1.40810   19.62649
      H1   -10.80695   -1.87842   18.88513
       H    -9.12186    8.78171   16.00529
       O    -8.77460    7.88901   15.94936
      H1    -9.37044    7.41389   15.29552
       H    -7.28281    7.57688   14.82886
       O    -6.52103    7.26208   14.31875
      H1    -5.91190    7.32737   15.10661
       H    -6.60785   -0.82394   19.21076
       O    -6.86241   -0.51019   18.35299
      H1    -6.10494   -0.61080   17.74004
       H   -10.76987    0.27341   18.18352
       O   -10.49411    1.13264   17.83415
      H1    -9.62826    1.40291   18.18255
       H    -5.56714   -1.07938   13.47543
       O    -6.23636   -0.78643   14.12644
      H1    -6.94791   -1.42160   14.01721
       H    -8.32861    7.40894   17.64383
       O    -7.72507    7.27845   18.36615
      H1    -7.14370    6.56069   18.12651
       H   -14.35618    4.85603   18.89186
       O   -13.68385    4.20399   18.83541
      H1   -12.86114    4.69575   19.02179
       H    -1.73975   -0.40887   18.83848
       O    -1.74337   -1.40084   18.82831
      H1    -1.43158   -1.68627   19.69894
       H    -5.11016    1.73993   15.06224
       O    -4.18213    1.45839   15.19947
      H1    -3.76363    2.10861   15.85094
       H    -1.52524    5.30479   15.89193
       O    -2.14595    5.58347   16.57517
      H1    -1.55687    6.12043   17.17687
       H    -0.61444    1.62643   18.47950
       O    -0.29132    1.02689   17.83965
      H1     0.14476    0.27756   18.27575
       H    -6.88487    5.42051   13.48655
       O    -7.17669    4.62628   13.04421
      H1    -6.57187    4.49247   12.30521
       H    -7.98153   -1.77393   17.34355
       O    -8.31857   -2.43958   16.66845
      H1    -8.56075   -1.83103   15.89653
       H    -8.03016    2.02791   19.79798
       O    -8.05475    1.77881   18.89341
      H1    -7.51533    0.95646   18.84309
       H    -9.87576    0.49165   14.83956
       O    -9.06349    0.40760   15.32175
      H1    -9.34923    0.76280   16.19407
       H    -4.97043   -1.25110   15.77543
       O    -4.61414   -1.14784   16.65396
      H1    -4.10687   -0.34726   16.56294
       H    -3.26735   -2.52657   19.15072
       O    -4.07764   -3.03933   18.96869
      H1    -4.23299   -2.73554   18.04538
       H   -11.64068    4.61654   16.82933
       O   -11.62105    5.57080   16.80252
      H1   -11.30603    5.86182   15.97755
       H    -2.04034    2.25905   13.10741
       O    -2.50565    1.53123   12.71996
      H1    -3.07387    1.19704   13.44262
       H    -6.85982    3.20923   17.82357
       O    -6.46597    3.59427   17.02286
      H1    -6.78531    3.08856   16.27775
       H   -11.29538    8.61760   17.49325
       O   -11.33426    8.18757   18.34683
      H1   -11.39359    7.21835   18.20840
       H    -5.64029    8.98210   16.95190
       O    -5.16957    8.35108   16.44767
      H1    -4.35233    8.77783   16.13022
       H    -4.21464    7.84146   17.94705
       O    -3.78707    7.82979   18.78855
      H1    -4.56488    7.88510   19.32049
       H   -12.04000    1.68021   14.78302
       O   -11.81970    1.35277   13.91647
      H1   -12.35908    0.49714   13.92894

