96
frame 4 | Written by MDAnalysis XYZWriter (release 2.4.3)
       H    -7.73005   -8.36631  -16.92803
       O    -7.82941   -8.99844  -17.67381
      H1    -7.05981   -8.82734  -18.31824
       H    -9.81972  -15.14083  -15.94760
       O   -10.18206  -14.49941  -15.31773
      H1    -9.47682  -13.99165  -14.89544
       H    -6.99896  -17.52918  -14.03577
       O    -7.23051  -17.47849  -13.10520
      H1    -6.71081  -18.06448  -12.56703
       H    -4.81517  -11.75821  -15.70066
       O    -4.58277  -12.64508  -15.36120
      H1    -4.15829  -13.17639  -16.09038
       H    -6.70022  -10.24509  -10.81041
       O    -6.61860   -9.70696  -11.62568
      H1    -5.73273   -9.39809  -11.57051
       H    -9.68318  -10.11791  -13.07174
       O   -10.07607  -10.95350  -13.20599
      H1    -9.46589  -11.54261  -13.73804
       H    -8.00632  -15.80346  -12.67057
       O    -8.09398  -14.81488  -12.66513
      H1    -7.90391  -14.55926  -13.56890
       H    -1.78794  -11.95524  -17.39614
       O    -1.07541  -12.66021  -17.32532
      H1    -0.91941  -12.94527  -18.23000
       H    -6.26044  -14.87338  -12.13215
       O    -5.29913  -14.64523  -12.00661
      H1    -5.35568  -13.71158  -12.26474
       H    -6.66187   -9.75630  -15.49200
       O    -5.99430  -10.33697  -15.90598
      H1    -5.82628   -9.97957  -16.80748
       H    -5.00735  -15.73700  -14.53052
       O    -5.66901  -15.26923  -15.07421
      H1    -5.09767  -14.46970  -15.15187
       H    -7.49174  -12.59857  -14.13420
       O    -8.36238  -12.66613  -14.57034
      H1    -8.23521  -12.57190  -15.53285
       H    -3.67327   -9.45381  -12.45051
       O    -3.94194   -9.61034  -11.52844
      H1    -3.34068   -9.16043  -10.93746
       H    -5.82159  -11.87615  -13.95715
       O    -6.22318  -12.12507  -13.10343
      H1    -6.48439  -11.34490  -12.62015
       H    -7.64362   -9.12541  -13.23379
       O    -7.94966   -8.80049  -14.09295
      H1    -7.91596   -7.84968  -13.98531
       H    -7.26039   -8.21584  -10.29001
       O    -7.06604   -7.61868   -9.52630
      H1    -6.20174   -7.24209   -9.63080
       H    -2.48258  -13.63652  -17.31033
       O    -3.32242  -14.10925  -17.51316
      H1    -3.16871  -15.07500  -17.32990
       H    -4.32118  -14.23322  -10.05342
       O    -3.46285  -13.81666   -9.78445
      H1    -3.69068  -13.18608   -9.04120
       H    -3.40111  -10.46649  -17.24088
       O    -2.70152  -10.73993  -16.65629
      H1    -3.04602  -10.56625  -15.78230
       H    -3.78520   -8.57673  -14.33359
       O    -3.31750   -9.34574  -14.05252
      H1    -2.39671   -9.05116  -14.00504
       H    -4.03128  -10.62960  -19.24342
       O    -4.35524   -9.86414  -18.72462
      H1    -4.78094   -9.29677  -19.39145
       H   -10.87153  -12.13141  -12.00500
       O   -11.34401  -12.32088  -11.20691
      H1   -11.18478  -13.31456  -11.01847
       H    -3.04448  -11.23580  -11.20802
       O    -2.55057  -12.03209  -11.48159
      H1    -2.84970  -12.77276  -10.91593
       H    -6.88346  -14.00598  -10.64345
       O    -6.98354  -14.30820   -9.73970
      H1    -7.90289  -14.60278   -9.71252
       H    -6.32393  -16.69581  -17.78178
       O    -6.81630  -15.91773  -17.51811
      H1    -6.37070  -15.61843  -16.71093
       H    -4.10132   -6.03677  -15.21779
       O    -4.24258   -6.60750  -14.44711
      H1    -5.17578   -6.52147  -14.26864
       H    -6.43157  -14.59167  -18.90901
       O    -6.32514  -13.71339  -19.19929
      H1    -5.42327  -13.38583  -19.37659
       H    -1.70158  -12.93020  -14.73043
       O    -1.21655  -12.53230  -14.00764
      H1    -1.91551  -12.33286  -13.39025
       H    -7.35108  -12.85278  -18.00776
       O    -7.89762  -12.35348  -17.32432
      H1    -7.17892  -11.87017  -16.83802
       H    -1.77818   -8.77192  -16.48270
       O    -2.06311   -7.86911  -16.21603
      H1    -1.46535   -7.30016  -16.74705
       H    -7.61096  -11.94455   -9.15308
       O    -6.99472  -11.19378   -9.30108
      H1    -7.42630  -10.50225   -8.80722
       H    -0.73057  -10.72139  -14.05775
       O    -0.47502   -9.81686  -13.86948
      H1     0.06327   -9.51292  -14.60221

