96
frame 0 | Written by MDAnalysis XYZWriter (release 2.4.3)
       H    -4.02219    4.28283   10.46519
       O    -3.48613    4.40580   11.25622
      H1    -3.87125    3.96582   11.98936
       H     0.28797    4.68234    3.97148
       O    -0.14774    5.38529    3.47833
      H1     0.63034    5.75878    3.02329
       H    -1.65765   -0.78452   12.64407
       O    -2.39047   -0.77058   11.99468
      H1    -2.94201   -0.01047   12.15683
       H     1.87495    4.47436    6.34421
       O     0.99791    4.68227    6.60529
      H1     1.10150    5.59496    6.97906
       H    -7.76078    3.34308    6.31266
       O    -7.21021    3.93314    5.73109
      H1    -7.72591    4.04247    4.90719
       H    -0.72668    4.89694   11.11328
       O    -0.86561    4.00153   10.80737
      H1    -1.81888    3.82536   10.90535
       H    -2.69057    1.27299    3.55943
       O    -2.63267    1.81733    2.78415
      H1    -3.50863    1.86052    2.34837
       H    -4.74347    0.83057    7.36142
       O    -4.84214    0.04947    6.84876
      H1    -5.67888    0.09430    6.34942
       H     1.48096   -1.20245    4.64873
       O     0.61725   -0.79781    4.87065
      H1     0.17528   -0.72239    3.99996
       H    -8.55910    2.27637    8.52329
       O    -7.77595    2.17293    7.90631
      H1    -7.01230    2.48204    8.40543
       H    -1.73231    6.19979    3.90949
       O    -2.59306    6.57626    3.88212
      H1    -3.01325    6.26714    4.74924
       H    -2.95617    7.18064    9.66448
       O    -2.81350    7.00874    8.73671
      H1    -1.85172    6.88608    8.65548
       H    -8.15279    5.07104    7.13192
       O    -8.19505    6.03173    7.33355
      H1    -8.75900    6.08323    8.13670
       H    -0.78920   -1.09524   10.76987
       O     0.07039   -0.92441   10.28215
      H1     0.28017   -1.69937    9.73875
       H    -4.02899    5.36218    5.74273
       O    -3.83721    6.27892    6.08841
      H1    -3.39099    6.09247    6.93333
       H    -0.60671   -2.02977    5.65287
       O    -1.20720   -2.41277    6.31090
      H1    -1.41118   -1.78168    6.95119
       H    -7.56023    0.18829    4.16154
       O    -7.77140    0.01691    3.25747
      H1    -7.38457    0.68498    2.69283
       H    -2.69805    3.22587    7.29486
       O    -3.51133    2.68411    7.18687
      H1    -4.00624    2.95218    6.39988
       H    -3.45174    0.13638    5.73753
       O    -2.68068    0.10194    5.13539
      H1    -1.99155    0.04565    5.81713
       H    -0.88043    3.51047    9.09709
       O    -0.94226    3.37467    8.11707
      H1    -0.22786    3.79477    7.70665
       H     1.58232    0.44129    8.67163
       O     2.52155    0.16787    8.66420
      H1     3.00637    0.78493    8.04886
       H    -7.83002    0.86725    6.65078
       O    -7.55322    0.26888    5.95502
      H1    -8.01038   -0.57891    6.20307
       H    -4.76921   -1.67051    7.71827
       O    -4.65658   -2.46400    8.25798
      H1    -4.41969   -3.21854    7.71627
       H    -0.69007    1.70566    0.27397
       O    -0.56027    2.09099    1.17132
      H1    -1.40265    2.01398    1.69032
       H    -0.74247    1.31293    7.43659
       O    -0.59779    0.45064    7.02623
      H1     0.07836    0.48673    6.35470
       H    -4.99902    4.13744    4.37597
       O    -4.20766    3.68857    4.71827
      H1    -3.60617    3.75577    3.96870
       H    -3.50403   -0.83552    3.29416
       O    -3.38487   -1.36865    2.56434
      H1    -3.90376   -0.97639    1.87197
       H    -8.88113    0.22306   10.80324
       O    -8.07841    0.20933   10.21408
      H1    -8.30500    0.43048    9.29299
       H    -5.94384    1.55070   12.25685
       O    -6.25970    1.84040   11.37458
      H1    -6.75159    1.11863   11.15211
       H    -4.86749    6.06118    2.79382
       O    -5.59816    5.78410    3.43386
      H1    -5.73278    6.55631    3.98499
       H    -4.64464    2.83184    8.43997
       O    -5.49024    3.08397    8.96823
      H1    -5.44367    2.51007    9.75728
       H    -6.60150    6.72259    7.34280
       O    -5.97139    7.43723    7.45257
      H1    -5.12952    7.04393    7.23236

