96
frame 6 | Written by MDAnalysis XYZWriter (release 2.4.3)
       H    14.89778   -0.83889  -16.12570
       O    14.98431   -0.07507  -15.60127
      H1    15.96212    0.13810  -15.38697
       H    13.62897    1.59217  -17.71697
       O    14.04328    2.05890  -16.97044
      H1    14.32479    1.34885  -16.33130
       H    13.19352   -2.08606  -10.56217
       O    12.81141   -1.27987  -10.25429
      H1    11.96533   -1.22675  -10.76062
       H    12.22622    0.18734   -7.66917
       O    12.19842   -0.73966   -7.66798
      H1    12.27184   -0.92018   -8.62150
       H    12.97862    3.34724  -12.96494
       O    12.78906    3.40708  -12.06403
      H1    11.86530    3.64742  -12.00272
       H    16.49749   -5.64778  -12.04942
       O    15.59249   -5.85884  -12.22811
      H1    15.32431   -6.68168  -11.75463
       H    14.86630   -5.70819  -14.15837
       O    14.40820   -5.84471  -14.99895
      H1    13.67022   -6.39889  -14.80040
       H    18.00689   -0.36159  -14.51006
       O    17.59780    0.45780  -14.86146
      H1    17.76512    0.46875  -15.83621
       H    10.28607   -3.04322  -10.32528
       O    10.61595   -3.77665  -10.91566
      H1    10.96779   -3.32084  -11.75578
       H    15.07234   -3.36547  -18.66961
       O    14.26256   -2.84376  -18.54039
      H1    14.12663   -2.76405  -17.58615
       H    14.71025   -2.55960  -14.71843
       O    14.42782   -2.92816  -15.56369
      H1    14.27608   -3.85295  -15.45329
       H    11.22319   -1.16476  -13.28496
       O    11.40080   -2.05027  -12.95642
      H1    12.31304   -2.19024  -12.92046
       H    18.22003   -1.20609  -12.44260
       O    18.63371   -1.60948  -13.20920
      H1    19.55845   -1.63385  -13.02452
       H    15.17167   -3.62108  -11.17221
       O    14.47943   -3.41383  -10.49346
      H1    14.34441   -4.19261   -9.95639
       H    17.87152   -4.91891  -17.52009
       O    17.05864   -4.48704  -17.80955
      H1    17.09836   -3.65112  -17.30355
       H    17.69092   -3.19081  -11.99438
       O    17.95100   -3.97555  -11.50380
      H1    17.51969   -3.93087  -10.65093
       H    16.78355   -2.19165   -8.63015
       O    16.20052   -1.46377   -8.92211
      H1    15.56795   -1.93118   -9.42116
       H    18.37080   -1.68965  -16.39086
       O    17.57949   -2.02359  -16.80986
      H1    17.44270   -1.56615  -17.63477
       H    16.48608    3.34734  -14.16821
       O    16.93718    2.74187  -13.63089
      H1    17.21409    1.96643  -14.15891
       H    15.61507   -0.00077  -11.63854
       O    14.76351    0.35590  -11.99439
      H1    14.64140    1.23819  -11.73414
       H    16.58354    2.43305  -11.81095
       O    16.58744    2.37605  -10.86684
      H1    16.10007    3.10567  -10.48678
       H    12.76172    2.83469  -15.76823
       O    12.37151    3.23946  -14.92364
      H1    11.47517    3.05621  -15.17368
       H    10.39441   -2.63196  -14.35154
       O    10.15564   -2.37048  -15.28010
      H1     9.50440   -2.95151  -15.62342
       H    13.42913   -5.55834  -11.50675
       O    12.64695   -5.63055  -11.95391
      H1    11.93334   -5.36784  -11.40783
       H    19.03274   -3.38372  -14.57343
       O    19.26142   -4.29719  -14.52351
      H1    19.09014   -4.49460  -13.60174
       H    15.31532   -0.78993   -7.64165
       O    15.16475   -0.39206   -6.77112
      H1    14.21068   -0.57817   -6.59175
       H    17.23867    0.57413  -11.04419
       O    17.22573   -0.30606  -11.37089
      H1    16.70473   -0.75637  -10.67386
       H    16.21550   -2.40881  -13.71339
       O    15.53534   -2.33895  -12.99765
      H1    15.39132   -1.34133  -12.97864
       H    11.94396    1.33086  -13.57263
       O    11.22936    0.69044  -13.43111
      H1    10.56776    1.19243  -12.96288
       H    12.83954    2.17150  -10.50504
       O    13.23454    1.48607   -9.93372
      H1    13.47955    0.75640  -10.48269
       H    16.98948   -6.38999   -9.04133
       O    16.76553   -5.44852   -8.88239
      H1    15.79378   -5.47154   -8.90282
       H    18.45063    2.31479  -12.38560
       O    19.32500    1.96738  -12.09881
      H1    19.61671    1.37784  -12.73146

