96
frame 5 | Written by MDAnalysis XYZWriter (release 2.4.3)
       H   -16.51632    6.32000    9.25756
       O   -16.62270    6.66544   10.14451
      H1   -17.60337    6.63127   10.38903
       H   -16.10602    4.81203    6.71242
       O   -15.50830    4.07896    6.95565
      H1   -15.22757    4.12281    7.89250
       H   -13.14085    0.13280    4.05600
       O   -14.08506    0.10287    4.17674
      H1   -14.29254    0.88754    4.63049
       H   -13.37202    3.56533   12.79918
       O   -12.93242    2.88202   12.33256
      H1   -12.25074    2.41710   12.82788
       H   -17.29853    2.65182    7.23326
       O   -17.97790    2.17860    7.70854
      H1   -18.43288    2.71636    8.34552
       H   -13.82210   10.33023    7.15487
       O   -13.26253   10.11956    7.94643
      H1   -13.85722    9.67363    8.59963
       H   -10.22919    8.07076    9.59077
       O   -10.67234    7.49200    8.93680
      H1   -11.64794    7.61879    9.07853
       H   -15.54812    3.94688   10.23893
       O   -14.93516    4.04571    9.46600
      H1   -14.57644    3.16429    9.43099
       H   -14.16999    4.85104   14.63164
       O   -13.90431    5.05114   13.69692
      H1   -13.06573    5.45164   13.68143
       H   -15.50280    8.28155   10.11985
       O   -14.70669    8.81483    9.96084
      H1   -14.63401    9.42259   10.73165
       H   -10.16202    4.27388    7.58548
       O   -10.01822    3.57334    8.25853
      H1    -9.10946    3.66075    8.58116
       H   -18.00052    2.50051   14.31279
       O   -17.81441    3.41041   14.06474
      H1   -17.15175    3.34064   13.40996
       H   -15.13157    3.23028    3.72098
       O   -14.58454    2.86337    4.46582
      H1   -15.02225    3.13547    5.29501
       H   -16.15542    1.47246   12.58620
       O   -16.41951    2.03514   11.86954
      H1   -16.81642    1.51147   11.19955
       H    -8.65266    3.80168   11.24565
       O    -8.90310    3.05286   11.84264
      H1    -9.63420    2.69099   11.32154
       H   -17.99257    0.78331    8.99397
       O   -17.94481    0.21065    9.78513
      H1   -17.77259   -0.69946    9.42540
       H    -8.92444    5.91719   12.55116
       O    -9.34429    6.49323   11.92204
      H1    -9.94146    5.80737   11.55545
       H   -13.48181    2.02807   10.77167
       O   -13.56341    1.53106    9.90530
      H1   -13.49242    0.63691   10.13273
       H   -10.59358    6.31732    7.43035
       O   -10.64367    5.80970    6.61005
      H1   -11.64605    5.77902    6.47560
       H   -15.99982    6.64937   11.87297
       O   -15.87472    6.89996   12.79809
      H1   -15.21887    6.23371   13.12624
       H   -11.00874    1.83862    7.76709
       O   -11.22439    1.08554    7.17706
      H1   -12.02190    0.74146    7.56415
       H   -13.84844   -1.12945    9.00585
       O   -13.37284   -1.13939    8.18942
      H1   -12.77282   -1.91965    8.28863
       H   -13.20454   -1.54676   11.73664
       O   -13.82017   -1.30523   11.04470
      H1   -14.72863   -1.42078   11.39137
       H   -11.01426    3.95782    9.73833
       O   -11.25742    4.46869   10.54249
      H1   -11.97237    3.97834   10.92004
       H   -19.93180    6.22211   11.09564
       O   -19.23795    6.87488   11.13571
      H1   -19.36414    7.29873   12.07110
       H   -18.41052    4.80605    3.83981
       O   -17.84132    4.25357    4.48166
      H1   -17.14003    3.92981    3.91399
       H   -17.05923    7.30527    7.56626
       O   -17.07594    6.40924    7.39841
      H1   -18.04426    6.33048    7.32822
       H   -13.67925    4.43884    5.29851
       O   -13.34818    5.35699    5.47032
      H1   -13.77629    5.69895    6.28935
       H   -15.06731    8.01853    5.05528
       O   -15.67380    8.55383    4.48624
      H1   -15.54556    8.05516    3.66095
       H   -11.68366    1.81544   10.46934
       O   -10.83389    1.34252   10.70877
      H1   -10.86024    1.04680   11.61435
       H   -15.82003    4.80180   16.47907
       O   -15.56045    4.23647   15.74590
      H1   -16.32208    3.98702   15.18589
       H   -13.92854    7.38914    8.67778
       O   -13.54180    6.69644    8.10825
      H1   -13.33503    5.95233    8.71734

