96
frame 5 | Written by MDAnalysis XYZWriter (release 2.4.3)
       H    14.60141  -13.23590    3.92303
       O    14.00378  -13.00745    3.17383
      H1    13.43697  -13.81451    3.10088
       H    16.42583  -15.11995    0.50533
       O    16.40434  -14.18131    0.20874
      H1    16.66393  -14.15928   -0.76064
       H    17.57210  -12.99260    0.32860
       O    18.04903  -12.11043    0.26184
      H1    18.85512  -12.27098    0.76141
       H    17.31069  -10.99412    1.41408
       O    17.28999  -10.32672    2.14889
      H1    16.35217  -10.11658    2.12155
       H    14.07154  -12.52832    1.24148
       O    14.14853  -12.32104    0.28379
      H1    14.97939  -12.74995    0.04030
       H    18.55567  -12.27363    4.26512
       O    17.78728  -11.67963    4.48276
      H1    17.59810  -11.35044    3.60239
       H    18.67485  -10.75465    7.26420
       O    18.49162  -11.60375    7.63231
      H1    18.96820  -12.25025    7.02522
       H    16.26841  -13.58959    5.90275
       O    16.04250  -13.71926    4.95411
      H1    16.69313  -13.06686    4.57057
       H    13.35434   -8.73054    6.57188
       O    13.65947   -9.64128    6.57824
      H1    14.62120   -9.58974    6.61125
       H    19.12079  -12.42984   11.23311
       O    18.69189  -12.88299   10.49632
      H1    19.28661  -12.66136    9.81104
       H    14.11376   -9.37395    2.67915
       O    14.96678   -9.07964    2.33210
      H1    15.25395   -8.48956    3.09415
       H    14.24600  -13.56030   10.19275
       O    14.40828  -12.81855    9.60483
      H1    13.68387  -12.65486    8.95294
       H    12.93818  -11.56619    3.79337
       O    12.51486  -10.82742    4.30890
      H1    13.11178  -10.40648    4.91287
       H    16.24817   -6.45234    3.82878
       O    15.43817   -6.89085    4.09863
      H1    15.64438   -7.43753    4.93365
       H    14.52862   -8.50536    9.69801
       O    14.94543   -9.27836    9.29604
      H1    14.22083   -9.73673    8.85728
       H    15.54914  -13.19683    8.26090
       O    16.29609  -13.35098    7.61324
      H1    16.84922  -12.56846    7.70392
       H    13.66269  -14.99556    8.73160
       O    13.75672  -15.26636    7.82334
      H1    14.60691  -14.97484    7.64444
       H    19.89578   -8.63405    1.59130
       O    19.32153   -7.88069    1.36001
      H1    19.62706   -7.61442    0.45395
       H    17.33415  -16.62958    4.95150
       O    16.73600  -16.29523    4.31152
      H1    16.51953  -15.42080    4.60559
       H    18.96903   -6.84454    2.74638
       O    18.46917   -6.30509    3.41723
      H1    18.47064   -5.44422    2.94906
       H    17.85916  -14.68219   10.19580
       O    17.40579  -15.51474   10.05746
      H1    17.33883  -15.82778   10.99821
       H    19.41646   -8.43328    6.23753
       O    18.90962   -8.00991    6.90751
      H1    19.24415   -7.12001    6.86936
       H    17.33055  -16.92109    0.85741
       O    16.52611  -16.53913    1.26198
      H1    16.62380  -16.39340    2.23197
       H    18.18516  -17.03998    6.67329
       O    19.03910  -17.18117    6.21144
      H1    19.10773  -18.13576    6.10561
       H    14.46700  -17.81648    2.92186
       O    15.07958  -18.45806    2.41355
      H1    15.81958  -17.89521    2.08915
       H    15.83756   -8.82168    7.89526
       O    16.14209   -8.43225    7.02551
      H1    17.13016   -8.18743    7.04584
       H    17.43610   -7.36965   -0.58923
       O    16.69987   -7.97698   -0.25220
      H1    17.04296   -8.26863    0.61747
       H    16.74159  -16.50517    8.54999
       O    16.96482  -17.21351    7.86713
      H1    16.07856  -17.56823    7.71941
       H    17.62337  -11.52869   10.42574
       O    17.31939  -10.57218   10.39403
      H1    16.44220  -10.53220    9.97381
       H    18.74367  -11.41524   -2.81308
       O    18.72749  -10.71233   -2.19142
      H1    18.34580  -11.10287   -1.41096
       H    19.28966   -8.37347    8.87109
       O    19.25867   -8.41085    9.82245
      H1    18.66441   -9.12466    9.92320
       H    11.27392  -12.58761    7.93759
       O    12.15929  -12.21547    7.97722
      H1    12.54671  -12.28458    7.06067

