96
frame 7 | Written by MDAnalysis XYZWriter (release 2.4.3)
       H    -3.86500    2.90800   -1.84552
       O    -3.54868    2.57122   -2.69609
      H1    -4.35037    2.53127   -3.27734
       H    -5.91084    5.63883   -7.47789
       O    -5.51172    4.89236   -7.03758
      H1    -6.21234    4.55405   -6.46941
       H    -4.43623   -2.60266   -7.82406
       O    -3.84031   -1.86982   -7.88658
      H1    -4.13781   -1.40307   -8.67113
       H    -6.50037    3.23364   -4.58422
       O    -6.21397    2.94790   -3.67505
      H1    -6.71341    2.08824   -3.48128
       H    -1.79674   -2.39698   -5.78103
       O    -2.45994   -2.11342   -5.16502
      H1    -1.97455   -1.93910   -4.34727
       H    -5.22711   -0.84028   -6.85050
       O    -5.48891   -0.33012   -6.09946
      H1    -4.67018    0.04088   -5.68932
       H    -7.64366   -0.77100   -8.22139
       O    -7.44769   -1.70557   -8.45491
      H1    -7.67665   -1.74735   -9.40564
       H    -2.23914   -5.50128   -5.73574
       O    -2.81216   -5.45376   -6.47965
      H1    -2.45338   -4.66861   -6.88764
       H    -0.12700    2.56763   -5.32107
       O     0.41569    1.77578   -5.54054
      H1    -0.19203    1.32448   -6.18918
       H    -5.34926   -3.39803   -3.83420
       O    -4.58314   -3.97992   -3.99521
      H1    -4.04372   -3.53839   -4.64324
       H    -7.53685    2.62944   -6.33396
       O    -7.59676    3.55944   -5.97645
      H1    -8.45094    3.67255   -5.56607
       H     0.24933   -3.11564   -6.04601
       O     0.12792   -2.13138   -6.23365
      H1     0.85495   -1.91354   -6.88925
       H    -6.66969    1.79729   -8.12037
       O    -7.24362    1.21257   -7.65499
      H1    -6.63418    0.79558   -7.05374
       H    -7.23905    3.58710   -9.15895
       O    -6.30115    3.36487   -8.99964
      H1    -6.10529    3.82968   -8.16087
       H    -1.01767   -2.82786   -8.08227
       O    -1.69207   -3.33245   -8.51262
      H1    -2.52049   -2.80274   -8.30360
       H    -2.48825   -0.22281   -5.41790
       O    -2.76512    0.67685   -5.14215
      H1    -1.99215    1.19677   -5.32786
       H    -2.76123   -0.75666   -2.59999
       O    -1.78293   -0.72727   -2.48240
      H1    -1.51260    0.21236   -2.56816
       H    -4.20268    5.09787   -5.98891
       O    -3.58840    5.45917   -5.29155
      H1    -2.85497    4.83998   -5.11585
       H    -4.68982   -0.82164   -0.35444
       O    -5.08962   -1.09623    0.46354
      H1    -6.03308   -1.20740    0.12503
       H    -8.25884    0.68713   -2.13800
       O    -7.35864    0.67340   -2.54870
      H1    -7.32450   -0.21082   -2.94758
       H    -9.86335   -1.39653   -4.89404
       O    -9.01894   -1.49168   -5.35234
      H1    -9.06110   -2.37877   -5.69195
       H    -6.00100   -1.29883   -4.85478
       O    -6.49329   -1.64676   -4.04598
      H1    -7.42760   -1.71180   -4.37863
       H    -3.63129    1.96004  -10.62519
       O    -3.62504    2.21832  -11.55539
      H1    -4.58110    2.27691  -11.56495
       H    -1.43224    0.04547   -9.19739
       O    -1.12725   -0.31682  -10.03238
      H1    -1.15101   -1.23301   -9.90318
       H    -7.09211    4.79601   -1.41686
       O    -7.46583    4.63933   -2.30012
      H1    -6.99568    3.92371   -2.75405
       H    -9.17334   -4.50307   -7.07398
       O    -8.95693   -3.56201   -6.96331
      H1    -8.51180   -3.06810   -7.67376
       H    -5.80218   -0.13519   -9.55280
       O    -4.89983    0.05237   -9.85545
      H1    -4.71360   -0.65401  -10.42633
       H    -1.57691    3.82198   -8.32145
       O    -1.53398    3.22937   -9.08066
      H1    -1.68411    3.80828   -9.83448
       H    -2.03972    3.50286   -4.01583
       O    -1.47231    4.24149   -4.34585
      H1    -1.52436    5.00726   -3.74003
       H    -5.49319    0.17268   -2.07125
       O    -4.50021   -0.00419   -1.96640
      H1    -3.99119    0.77551   -2.22823
       H    -2.50051    0.97584   -7.45461
       O    -1.50782    0.98352   -7.58456
      H1    -1.41859    1.74985   -8.14673
       H    -4.94844   -4.47540   -6.95144
       O    -5.40411   -4.08876   -7.71046
      H1    -6.32572   -3.94050   -7.40615

