96
frame 7 | Written by MDAnalysis XYZWriter (release 2.4.3)
       H     2.54339   10.89892   -2.42767
       O     2.59420   10.09310   -2.94391
      H1     2.78121    9.38673   -2.35045
       H     3.38550   12.31990   -6.65490
       O     3.93761   13.01212   -6.97980
      H1     3.49251   13.89289   -6.85976
       H     7.02165   11.17557   -1.35179
       O     6.23804   10.62017   -1.19843
      H1     5.92712   10.32211   -2.03626
       H     9.51377   11.12553   -8.03575
       O     9.84063   12.03602   -8.27583
      H1     9.63025   12.56249   -7.49753
       H     7.60207   12.58079   -5.86421
       O     8.49314   12.74579   -5.54528
      H1     8.37559   13.60213   -5.09469
       H     4.35387    6.72355   -5.17037
       O     3.55174    7.31815   -5.27869
      H1     3.35280    7.28959   -6.22168
       H    10.91469    8.37657   -3.21424
       O    11.16086    8.01043   -2.36745
      H1    10.39032    7.71584   -1.85941
       H     4.45924   13.32387    0.10005
       O     4.21324   12.34140    0.09409
      H1     4.92414   11.98818   -0.47054
       H    10.38706   11.36912   -3.30368
       O     9.41004   11.21032   -3.42776
      H1     9.21012   11.84765   -4.17367
       H     5.90153    5.82919   -3.78467
       O     5.32269    5.42782   -4.48499
      H1     4.55236    4.98597   -4.01406
       H     2.29997   10.48903   -5.01431
       O     2.08401   11.10777   -5.72368
      H1     1.16519   11.31688   -5.56422
       H     2.89360    7.37361   -0.96020
       O     3.29575    7.64190   -1.78927
      H1     3.03072    7.02314   -2.45692
       H     7.20665    6.87191    0.73277
       O     6.45594    7.39447    0.37527
      H1     6.74317    8.20719   -0.01772
       H     8.24811    6.96759   -1.44055
       O     9.04345    7.16261   -0.89307
      H1     8.83802    6.58796   -0.14579
       H     5.04392   11.69011   -4.01827
       O     5.03124   10.75875   -3.84941
      H1     4.13581   10.54593   -3.65980
       H     9.71853    9.16873   -6.53624
       O     9.39902    9.30384   -7.44607
      H1     8.70382    8.68408   -7.68654
       H     6.92608   14.51767   -3.70980
       O     7.78035   14.99274   -4.02043
      H1     7.60362   15.94267   -4.10099
       H     8.81689    6.00701   -6.27984
       O     8.91718    5.64513   -7.14937
      H1     9.77096    5.15256   -7.15636
       H     8.23745    6.76657   -8.13164
       O     7.65501    7.44907   -8.55857
      H1     6.74320    7.42516   -8.31419
       H     6.35665   10.88733   -7.68723
       O     6.34091   11.84521   -7.41933
      H1     5.39995   12.06127   -7.39711
       H     8.67627   12.28213   -1.97144
       O     8.47344   12.19453   -1.02245
      H1     8.97724   11.42788   -0.84576
       H     2.50887    6.41774   -4.18757
       O     2.27115    5.82846   -3.47788
      H1     1.37866    6.16231   -3.25720
       H     5.10099    8.76973   -9.34345
       O     4.91519    8.37895   -8.45752
      H1     4.17893    7.74968   -8.50912
       H     4.49669   14.34862   -3.97953
       O     5.25339   13.76789   -4.20214
      H1     5.32747   13.80032   -5.13812
       H     5.22288    8.30438   -5.14361
       O     6.08512    8.61501   -4.90523
      H1     5.92194    9.45891   -4.50516
       H     2.21724   14.46359   -3.79106
       O     2.11782   13.87158   -4.55948
      H1     2.24489   12.96582   -4.28974
       H     4.36371    4.33008   -0.54862
       O     4.60632    4.69966   -1.42716
      H1     4.22850    5.60730   -1.34526
       H     5.94300    7.01532   -2.12975
       O     6.59208    7.11948   -2.77761
      H1     6.20557    7.77322   -3.40803
       H     2.85724   10.55965   -8.16620
       O     2.24653   10.83385   -8.88883
      H1     2.36801   11.79651   -8.87664
       H     0.86407    9.60017   -3.18601
       O    -0.07788    9.65632   -3.34312
      H1    -0.30224   10.46957   -2.78696
       H     9.73301    7.97991   -4.87156
       O    10.24218    8.77996   -4.83421
      H1     9.62859    9.36297   -4.43344
       H     9.28538    5.98518   -3.94608
       O     8.70734    6.60027   -4.48357
      H1     7.92200    6.83517   -3.98824

