96
frame 7 | Written by MDAnalysis XYZWriter (release 2.4.3)
       H    18.28033    4.81479    6.26189
       O    17.91566    3.95287    6.64447
      H1    17.03059    4.28493    7.01290
       H    17.73721    7.05548    5.76512
       O    18.49578    6.47202    5.92279
      H1    19.24887    6.86521    5.39941
       H    14.03936    4.76157    3.02724
       O    14.43196    4.43049    2.21929
      H1    14.68222    3.50501    2.24475
       H    15.54512    3.40337    8.24049
       O    15.30059    3.98005    7.50424
      H1    15.14613    4.89412    7.78280
       H    13.59507    8.92743    2.55725
       O    13.33721    8.09194    2.08698
      H1    13.66471    8.05156    1.21558
       H    14.35936    3.03852    4.86420
       O    15.23640    2.69785    4.91783
      H1    15.59794    3.03271    5.70647
       H    12.48769    2.48763    5.47336
       O    12.00711    3.25184    5.86228
      H1    11.06592    2.85602    5.93252
       H    17.11609    2.78564    1.41019
       O    17.55957    3.56975    1.06656
      H1    18.43123    3.24035    0.80778
       H    12.61894    7.96132    7.07926
       O    12.84747    8.13721    6.14849
      H1    12.12570    8.67668    5.81429
       H    14.78660    1.03453   -0.05933
       O    14.51538    1.68209   -0.76772
      H1    15.10787    2.40990   -0.55577
       H    15.49558    1.95568    3.26280
       O    15.67138    1.82486    2.33727
      H1    15.65845    0.91654    2.01558
       H    17.66440    9.67343    2.79121
       O    16.70668    9.58412    3.01980
      H1    16.70020    8.95681    3.79927
       H    19.40714   10.15234   -0.32663
       O    19.44086    9.25354    0.03338
      H1    18.72363    8.72254   -0.21758
       H    10.97622    5.21668    3.48465
       O    10.79319    4.27474    3.41888
      H1    11.18369    3.90691    4.23269
       H    15.28528    7.61603    5.62346
       O    16.09592    7.77861    5.14880
      H1    15.93093    7.34821    4.33320
       H    18.50352    0.19385    6.92978
       O    17.90754    0.93408    7.15861
      H1    18.06515    1.68238    6.58137
       H    12.07374    3.12060    0.99009
       O    11.61409    2.55642    1.64112
      H1    11.29309    3.17062    2.31922
       H    13.91372   -1.37254    3.84965
       O    14.18626   -0.46109    3.72715
      H1    13.35107    0.04652    3.65280
       H    13.63342    6.99938    3.35349
       O    13.81343    6.40137    4.13627
      H1    13.32090    6.86867    4.82327
       H    16.37110    4.16078   -0.35278
       O    15.78579    4.12146   -1.13591
      H1    16.26746    3.84489   -1.91487
       H    18.39634    4.64708   -2.03657
       O    18.81153    5.42732   -1.78184
      H1    18.69614    6.12195   -2.42290
       H    15.17577   -1.00884    0.89505
       O    14.76238   -0.18185    1.03161
      H1    14.57532   -0.24057    1.96578
       H    14.64198    9.62745    6.27275
       O    14.66903   10.57249    6.09489
      H1    15.63120   10.61514    6.04886
       H    15.96923    5.35458    2.53151
       O    16.68043    6.02669    2.74956
      H1    17.20147    5.48832    3.35717
       H    16.57153    0.36055    6.24707
       O    15.94155   -0.18788    5.79333
      H1    15.57630    0.33489    5.04334
       H    10.09596    7.97250    2.56187
       O    10.64909    7.17644    2.71751
      H1    11.11177    7.07177    1.86279
       H    15.86730    7.76301    0.12249
       O    14.93813    7.61305   -0.13204
      H1    14.94864    6.89178   -0.74543
       H    13.78189    9.81612   -2.01935
       O    14.68886    9.54235   -1.92150
      H1    14.73183    8.87672   -1.22716
       H    14.00088    6.25544    7.90330
       O    14.92794    6.51464    7.93605
      H1    15.10660    6.62504    8.89520
       H    15.00486   10.34255    2.71781
       O    14.13618   10.56692    3.11706
      H1    14.22572   10.55352    4.08818
       H    13.21440    3.53961   -0.45228
       O    12.82766    4.22586    0.10098
      H1    13.43186    4.46778    0.83313
       H    17.44212    6.77004    1.19182
       O    17.58147    7.19680    0.28182
      H1    17.61238    6.43307   -0.25179

