96
frame 6 | Written by MDAnalysis XYZWriter (release 2.4.3)
       H   -18.32573    0.20847  -14.70292
       O   -18.16660    0.85232  -14.00659
      H1   -17.35699    1.40323  -14.26385
       H   -11.24618    7.66827  -17.09598
       O   -10.36483    7.78879  -16.74565
      H1    -9.77004    7.86161  -17.50480
       H   -16.48179    0.31724  -12.60094
       O   -15.59411    0.70616  -12.64942
      H1   -15.30668    0.46677  -13.51945
       H   -13.72768   -0.01474  -15.94831
       O   -14.63603    0.06781  -16.22361
      H1   -14.86956    0.90538  -15.77314
       H   -16.46216    6.31472  -17.50174
       O   -16.38394    5.35723  -17.66275
      H1   -15.37237    5.26594  -17.70868
       H   -10.49242    5.94667  -19.28779
       O   -11.27577    5.43796  -19.08910
      H1   -11.82235    6.02501  -18.52574
       H   -17.92945    1.75168  -16.88967
       O   -18.28818    0.87412  -17.13901
      H1   -18.13471    0.78650  -18.11666
       H   -13.08751    7.28746  -16.79749
       O   -13.14321    7.63658  -17.70728
      H1   -13.39611    8.55680  -17.63784
       H   -10.59780    6.27437  -12.57506
       O   -10.36743    6.55687  -13.47126
      H1    -9.46855    6.18504  -13.62355
       H   -16.58393   10.49358  -19.17365
       O   -17.42429   10.26406  -18.80535
      H1   -17.23430    9.38547  -18.42268
       H   -16.80227    6.73721  -13.45782
       O   -16.10226    6.39456  -12.87477
      H1   -15.36905    7.02058  -12.85218
       H   -16.20383   -0.54375  -19.14690
       O   -15.26842   -0.62786  -18.96364
      H1   -15.32015   -0.53578  -18.02644
       H   -11.77175    9.58902  -13.81192
       O   -11.83974    9.75879  -14.77785
      H1   -11.66683    8.90538  -15.23704
       H   -17.69514    7.87160  -16.04789
       O   -17.10921    8.25144  -16.70191
      H1   -16.51517    8.84184  -16.20804
       H   -10.51687    4.19826  -17.88329
       O   -10.07297    3.41782  -17.47934
      H1   -10.38297    3.14488  -16.57203
       H    -9.68637    0.31842  -19.13420
       O    -9.36430    1.23841  -19.20768
      H1    -9.59717    1.72608  -18.38381
       H    -7.47321    0.60643  -18.08009
       O    -6.77008    0.15158  -17.58319
      H1    -6.57109   -0.60428  -18.14435
       H   -15.59094   10.68654  -15.58408
       O   -15.84940    9.92925  -15.09514
      H1   -16.66016   10.12548  -14.60159
       H   -15.18247    4.78020  -13.07435
       O   -14.37757    4.22173  -13.13370
      H1   -14.59979    3.57420  -12.47752
       H   -19.04655    6.65054  -18.56847
       O   -19.03560    6.63617  -19.53934
      H1   -19.14326    7.64402  -19.80361
       H    -9.50021    2.22853  -14.85575
       O   -10.46117    2.41382  -14.86119
      H1   -10.50330    2.95549  -14.04486
       H    -7.22500    4.85291  -16.84581
       O    -7.41642    4.16145  -16.18281
      H1    -8.27899    3.88157  -16.34225
       H    -8.69944    9.53306  -14.33395
       O    -8.62119    9.20530  -15.21866
      H1    -9.37218    8.62491  -15.18072
       H   -11.11012   -1.75454  -17.97777
       O   -11.26354   -2.06965  -17.07969
      H1   -12.07309   -2.56386  -17.06511
       H   -13.56821    4.26232  -18.81496
       O   -13.84914    4.69117  -17.99881
      H1   -13.45489    4.22352  -17.21426
       H    -6.35655    1.91436  -18.73234
       O    -6.81099    2.37694  -19.46690
      H1    -7.62972    1.86344  -19.52013
       H   -17.82887    3.87271  -15.63524
       O   -17.77798    3.51968  -16.52617
      H1   -17.31399    4.31948  -17.01231
       H   -11.53147   -0.72109  -15.96360
       O   -11.79272   -0.06757  -15.31065
      H1   -11.20890    0.66495  -15.43571
       H   -13.95380   10.67357  -17.36844
       O   -13.06341   10.45142  -17.12964
      H1   -13.04784   10.39043  -16.16904
       H   -13.09746    6.99429  -14.31010
       O   -12.63539    6.66452  -15.05764
      H1   -11.76110    6.62364  -14.66223
       H   -15.50992    3.10397  -15.92275
       O   -15.47085    2.45450  -15.20091
      H1   -14.97958    2.97913  -14.52398
       H   -14.29182    8.61095  -12.10123
       O   -14.16559    8.39480  -13.06754
      H1   -14.67267    9.01347  -13.60467

