96
frame 8 | Written by MDAnalysis XYZWriter (release 2.4.3)
       H    -1.62099  -10.27596  -13.55125
       O    -1.07764   -9.50113  -13.35092
      H1    -1.07014   -9.07583  -14.23497
       H     5.52262  -15.43622  -18.74973
       O     6.07017  -15.88946  -19.36631
      H1     6.35406  -15.14234  -19.95787
       H    -2.28022  -11.51973  -17.99561
       O    -1.67212  -12.19055  -17.60152
      H1    -1.02189  -12.48375  -18.27347
       H     3.82957  -11.26719  -15.27130
       O     3.68274  -11.42419  -16.19645
      H1     2.77468  -11.79759  -16.25156
       H     3.23309   -4.38931  -17.99884
       O     3.99514   -4.89170  -17.78419
      H1     4.02859   -5.80013  -18.10978
       H     5.08950   -5.31752  -16.56534
       O     5.73000   -5.72294  -15.87222
      H1     6.59734   -5.57111  -16.26163
       H     2.74736   -9.38766  -16.01359
       O     3.03896   -8.47051  -15.99370
      H1     3.97061   -8.47927  -15.63541
       H     0.75393  -15.71884  -15.57271
       O     1.22812  -15.26364  -16.27323
      H1     2.06958  -14.99629  -15.91313
       H     1.46588  -17.18984  -17.61152
       O     1.99826  -17.46297  -18.40269
      H1     2.47619  -16.65474  -18.57996
       H    -2.31265   -5.56129  -15.68426
       O    -2.54540   -5.32354  -16.59465
      H1    -2.90593   -4.45409  -16.59375
       H    -2.68895  -13.31157  -16.91606
       O    -3.42194  -13.93313  -16.85058
      H1    -3.04793  -14.78333  -16.63302
       H     0.84257  -13.61298  -16.41030
       O     0.82123  -12.67722  -16.29719
      H1    -0.03742  -12.31492  -16.55874
       H    -4.07556   -9.97767  -19.00357
       O    -3.99187  -10.74423  -18.41372
      H1    -4.43484  -10.52473  -17.56929
       H     3.27676   -9.06275  -18.76756
       O     2.54914   -9.55056  -19.15776
      H1     2.41829   -9.34090  -20.09737
       H     5.12488   -4.33887  -19.03394
       O     5.87157   -3.98075  -19.53521
      H1     5.45182   -3.24632  -19.97297
       H     4.05810  -15.11752  -15.73321
       O     3.57975  -15.18259  -14.85349
      H1     4.09212  -14.59988  -14.22947
       H     5.81699   -8.59911  -14.05636
       O     5.98427   -8.22492  -14.90084
      H1     6.06159   -7.28234  -14.84047
       H     4.01427   -7.92365  -17.42228
       O     4.51982   -7.68332  -18.18879
      H1     5.38301   -7.94070  -17.92353
       H     4.50936  -12.62653  -18.68684
       O     5.31074  -12.78688  -18.13150
      H1     4.97125  -12.36923  -17.33725
       H     2.25814  -12.37100  -19.47486
       O     3.10343  -11.98901  -19.79266
      H1     3.12899  -11.07608  -19.46004
       H     4.54452  -10.23223  -12.88239
       O     4.13169  -10.84265  -13.54217
      H1     3.18007  -10.95107  -13.22239
       H     6.76753   -8.72973  -16.70863
       O     7.18562   -8.77917  -17.60052
      H1     8.09842   -8.62396  -17.43063
       H    -0.77229   -6.39663  -18.80498
       O    -1.09470   -5.51294  -19.07253
      H1    -1.74883   -5.24125  -18.37659
       H     0.83325   -9.15487  -18.84455
       O    -0.03719   -8.84787  -18.53539
      H1    -0.70537   -9.41347  -18.93554
       H     1.80850   -4.59248  -19.20570
       O     1.38871   -4.20168  -18.41846
      H1     0.43567   -4.46418  -18.43889
       H     7.51634  -10.58293  -18.04958
       O     7.64508  -11.44020  -18.53270
      H1     6.82957  -11.98835  -18.38306
       H    -3.39705   -6.38002  -17.77444
       O    -4.12202   -6.83027  -18.26253
      H1    -3.80106   -7.39920  -18.97647
       H     1.61809   -7.67420  -15.49098
       O     0.88845   -7.25777  -15.01134
      H1     0.88340   -6.30312  -15.27565
       H     1.57151   -4.28668  -15.42491
       O     0.68898   -4.57735  -15.68679
      H1     0.20572   -3.96423  -16.24615
       H     0.31941  -12.98401  -14.51101
       O     0.31146  -13.15963  -13.56172
      H1    -0.60583  -12.84092  -13.37521
       H    -1.20614   -8.91686  -16.75545
       O    -1.34688   -8.39723  -15.95460
      H1    -0.57306   -7.85901  -15.83460
       H     8.13690   -3.32386  -17.17359
       O     7.91036   -4.00835  -17.79785
      H1     7.13732   -3.67009  -18.25663

