96
frame 8 | Written by MDAnalysis XYZWriter (release 2.4.3)
       H    -6.76834   -8.88879    4.82843
       O    -6.68283   -8.51581    5.68209
      H1    -7.45727   -8.10368    5.98642
       H    -7.67816  -10.15696    1.56206
       O    -7.83552  -11.00717    1.10475
      H1    -7.60084  -10.86604    0.22936
       H    -6.78996   -7.00406    8.75048
       O    -7.65357   -7.42617    8.61489
      H1    -7.70778   -8.34465    8.95584
       H    -7.14066   -5.24716    5.48914
       O    -7.74132   -4.85116    4.81639
      H1    -7.30427   -3.99966    4.60897
       H   -12.85373   -7.80574    8.73918
       O   -13.62364   -8.38686    8.81746
      H1   -14.28362   -7.85888    9.21865
       H    -8.47831  -11.23120    6.00983
       O    -8.74338  -11.39602    5.10035
      H1    -9.52753  -11.96796    5.07122
       H    -9.71805   -8.84994    1.31554
       O   -10.45790   -8.65929    1.93769
      H1   -10.92941   -9.51714    1.97104
       H    -9.07792   -9.94292   10.29085
       O    -8.38677   -9.99224    9.61203
      H1    -8.36304  -10.89192    9.32056
       H   -11.33984   -5.66616    3.31958
       O   -11.93573   -5.43406    4.02471
      H1   -11.46912   -5.64177    4.83492
       H    -9.12067   -5.46305    7.81792
       O    -8.92019   -4.52048    7.63239
      H1    -8.76922   -4.53199    6.67152
       H   -10.58177  -13.93570    4.41694
       O   -10.61197  -13.16506    3.80953
      H1    -9.86137  -13.38473    3.23808
       H   -10.64421  -14.15234    7.44032
       O   -10.40540  -14.66050    8.20686
      H1   -11.24427  -14.87953    8.64311
       H    -5.03878   -7.51663    5.02813
       O    -4.51859   -6.76931    4.77145
      H1    -5.06305   -6.39600    4.02598
       H   -12.30403  -10.92640    3.54963
       O   -11.96996  -11.11665    2.67674
      H1   -11.37425  -11.89550    2.85565
       H   -10.46126  -16.02773    4.81493
       O   -10.45320  -15.23928    5.39771
      H1   -10.34538  -15.61359    6.28196
       H   -12.46368  -11.10845    5.64223
       O   -13.00539  -10.46460    5.16007
      H1   -12.37761   -9.71370    5.01060
       H   -10.11168   -9.74465    5.12078
       O   -10.41340   -8.82543    4.89947
      H1   -10.25025   -8.66357    3.94973
       H    -7.18588  -12.36735    4.41016
       O    -6.48749  -12.94309    4.15567
      H1    -6.67699  -13.71955    4.70742
       H   -12.91391   -6.82039    4.31937
       O   -13.36217   -7.47726    4.91483
      H1   -13.95095   -8.01488    4.28816
       H   -14.82554  -10.04137    1.82972
       O   -14.44682  -10.90303    1.54441
      H1   -13.57930  -10.89891    1.97992
       H   -10.76616   -6.58857    6.64151
       O   -11.70798   -6.31592    6.74715
      H1   -12.24639   -7.00662    6.45198
       H    -4.26988   -9.12880    7.61425
       O    -5.02222   -9.21717    8.21751
      H1    -5.80662   -9.02888    7.68277
       H    -8.70770  -12.65347    1.18923
       O    -8.85426  -13.49540    1.65486
      H1    -9.21229  -14.10820    0.98434
       H   -11.53789   -6.14272    8.52166
       O   -11.39187   -6.59305    9.40475
      H1   -11.10519   -5.88312    9.95367
       H   -12.22852  -12.64380    7.22024
       O   -11.68158  -12.60908    6.42971
      H1   -12.05439  -13.18598    5.79101
       H   -15.99036  -10.40728    6.59745
       O   -15.48273  -11.15436    6.30497
      H1   -14.73284  -10.73439    5.82843
       H   -14.00958  -13.47386    4.15738
       O   -13.46392  -14.01252    4.74760
      H1   -14.13504  -14.50623    5.22099
       H    -4.65257  -11.99203    6.80824
       O    -5.17586  -11.51064    6.12012
      H1    -5.34004  -12.09566    5.34466
       H    -7.56233  -12.93766    7.90380
       O    -7.45471  -11.98081    7.74366
      H1    -6.55563  -11.87167    7.37276
       H    -5.60524   -9.05047    3.08172
       O    -6.39629   -8.78154    2.61412
      H1    -6.19692   -8.17974    1.91716
       H    -8.60805   -7.40269    7.28104
       O    -9.05600   -7.11935    6.41309
      H1    -9.44986   -7.84942    5.92452
       H   -12.89238   -7.70539   -0.07797
       O   -12.82506   -7.56536    0.86379
      H1   -11.90396   -7.82316    1.07835

