96
frame 8 | Written by MDAnalysis XYZWriter (release 2.4.3)
       H     9.47050   16.99727    2.33080
       O     9.40074   17.62479    3.06303
      H1     9.46250   17.06408    3.81812
       H     6.93028   17.17169    8.33099
       O     7.01491   16.22593    8.57915
      H1     6.59679   15.76045    7.85204
       H     3.47624   18.17245    4.40443
       O     2.89980   18.44041    5.08751
      H1     3.25322   19.28262    5.37457
       H     4.78930   19.02251   10.15960
       O     5.22992   19.54260    9.46954
      H1     5.64024   20.21360    9.99159
       H     4.45045   17.64509   12.05776
       O     3.80082   18.35496   11.81851
      H1     3.32985   17.88200   11.13498
       H     6.73572   17.66275   12.91389
       O     6.18070   16.89619   12.96159
      H1     6.11645   16.57088   12.02531
       H     1.67453    9.57995    5.60391
       O     2.49918    9.77465    6.08532
      H1     2.29348   10.58634    6.54995
       H     2.09250   16.11971    6.89505
       O     2.66945   16.83930    7.22889
      H1     2.59788   17.66547    6.66174
       H     4.57707   14.55034    2.96152
       O     4.86449   15.09427    2.17112
      H1     4.55564   16.04063    2.24286
       H    10.27800   17.86240    9.18030
       O    10.27930   18.61224    8.64221
      H1     9.37306   18.84898    8.60954
       H     3.74602   12.07974    6.95433
       O     2.84761   12.16990    7.36128
      H1     3.00308   11.93558    8.28378
       H     1.14437   14.30228    6.13476
       O     1.31567   14.59471    7.09463
      H1     1.95867   13.86211    7.27843
       H     6.69563   19.25245    8.58678
       O     7.43823   18.83864    8.11892
      H1     7.34685   19.09239    7.18938
       H     5.57422   13.76869   10.61934
       O     5.30017   12.84268   10.84163
      H1     4.46711   12.74354   10.31845
       H     8.71587   15.47452    6.32500
       O     8.90570   15.55028    5.41147
      H1     8.10329   15.39057    4.93154
       H     6.05969   16.07712    3.52122
       O     6.44065   16.27704    4.37441
      H1     5.87967   15.90750    5.10053
       H     2.20302   15.73658   10.34599
       O     2.90818   16.35152   10.12252
      H1     2.78883   16.50234    9.20475
       H     6.33496   11.56732   10.55212
       O     6.94343   10.84643   10.57236
      H1     7.71301   11.22188   10.98935
       H     6.70548   10.59112    4.29306
       O     6.96967    9.91095    4.93355
      H1     6.36177    9.21484    4.88330
       H     1.87496   12.09296    3.55761
       O     2.33162   11.50989    2.95633
      H1     2.33207   11.94758    2.10277
       H     5.47949   12.68087    5.72258
       O     5.43914   12.73069    6.69010
      H1     6.20428   12.09320    6.88204
       H     6.14271   19.58891    2.08565
       O     6.53225   18.68276    2.08271
      H1     7.37116   18.75968    2.62344
       H    11.06766   17.91792    7.08449
       O    11.47063   17.36826    6.41873
      H1    10.85633   16.72743    6.01841
       H     5.24279   18.10644    2.83944
       O     4.33653   17.67814    2.74296
      H1     4.01360   18.17904    1.99299
       H     7.98960   11.21303    7.50149
       O     7.16518   11.06770    8.01473
      H1     7.39769   11.31560    8.95932
       H     6.10645   15.93699    9.90728
       O     5.44598   15.62817   10.59329
      H1     4.59736   15.84621   10.31743
       H     5.22546   14.42998    6.62812
       O     5.33290   15.36126    6.77509
      H1     4.44678   15.75994    6.89134
       H     0.42390   12.42094    4.45030
       O     1.01542   13.21136    4.53148
      H1     0.63961   13.87301    3.91792
       H     7.55393   12.15449    2.43897
       O     6.68113   11.71272    2.59106
      H1     6.47470   11.60620    1.61613
       H     1.87368   11.65644    9.80690
       O     2.81060   11.58923    9.83586
      H1     3.12609   10.91756   10.43139
       H     7.45331   18.12245    5.02464
       O     7.28440   19.03101    5.32934
      H1     7.97424   19.61791    5.00716
       H     5.29639   12.74945    3.43913
       O     4.58262   13.07719    4.10731
      H1     3.82939   12.46347    3.94574

