96
frame 8 | Written by MDAnalysis XYZWriter (release 2.4.3)
       H   -14.48741  -13.72599   -0.06060
       O   -14.84314  -13.45808   -0.91278
      H1   -15.81749  -13.45729   -0.80906
       H   -15.23882  -11.29280   -1.42562
       O   -15.02332  -10.35107   -1.43026
      H1   -14.60957  -10.30489   -0.54964
       H   -19.07393  -12.92390    2.54875
       O   -19.61795  -12.15263    2.47558
      H1   -19.27978  -11.61409    3.16910
       H   -17.76019  -15.56520   -7.27383
       O   -17.18727  -15.07137   -6.63275
      H1   -16.46981  -15.61749   -6.37135
       H   -17.59357  -15.17658   -4.07450
       O   -18.34370  -14.94071   -3.52837
      H1   -18.86301  -15.70850   -3.27671
       H   -17.61465  -14.88043    2.90700
       O   -17.73533  -14.09010    2.37833
      H1   -16.97109  -13.57830    2.64411
       H   -15.80152  -19.14528    0.44586
       O   -15.57044  -18.22689    0.80886
      H1   -15.73143  -18.30328    1.75023
       H   -16.36027   -9.47280   -1.37054
       O   -17.13932   -8.86122   -1.31044
      H1   -17.68214   -9.14522   -0.55854
       H   -14.77184  -18.69761   -6.73855
       O   -14.39314  -17.95336   -7.28414
      H1   -13.96227  -17.31078   -6.68812
       H   -18.95651  -17.64389   -7.23990
       O   -18.35521  -18.17328   -6.68143
      H1   -18.62915  -17.87128   -5.81312
       H   -14.13436  -15.66640    2.16476
       O   -14.85512  -15.48420    1.51211
      H1   -15.68876  -15.77188    1.84158
       H   -17.68355  -14.14487    0.47029
       O   -17.46170  -14.18390   -0.50352
      H1   -18.09350  -13.52926   -0.84187
       H   -15.92887  -10.53218   -5.63041
       O   -15.74379  -10.53802   -4.66815
      H1   -16.43791   -9.99064   -4.20159
       H   -18.61056  -12.92096   -9.65407
       O   -18.64285  -13.80704  -10.06313
      H1   -19.09343  -14.42845   -9.38652
       H   -17.92857  -13.18749   -3.14564
       O   -17.70983  -12.23928   -3.08940
      H1   -18.58140  -11.80978   -3.00984
       H   -12.64700   -9.61741   -3.81918
       O   -12.26308  -10.53882   -3.72826
      H1   -13.00576  -11.13250   -3.80494
       H   -17.42396  -15.85371   -0.34685
       O   -17.64038  -16.75288   -0.13973
      H1   -16.81484  -17.19861    0.13351
       H   -17.60844  -13.27790   -6.14702
       O   -17.83409  -12.37393   -6.01471
      H1   -17.70837  -11.97467   -5.14919
       H   -14.98242  -12.15397   -4.10470
       O   -14.30155  -12.73700   -3.62848
      H1   -14.57308  -12.73582   -2.69908
       H   -15.56380  -18.89154   -3.73427
       O   -14.84195  -19.44960   -3.44651
      H1   -14.66496  -20.09561   -4.20224
       H   -19.36758   -9.58254   -3.60112
       O   -19.46253   -9.04497   -4.38439
      H1   -19.65397   -8.12893   -4.17406
       H   -18.00308  -17.82163   -1.33899
       O   -17.95247  -18.60678   -1.87527
      H1   -17.33195  -19.19851   -1.43842
       H   -19.82887  -10.91204   -8.11956
       O   -19.15804  -11.56173   -8.30621
      H1   -18.63475  -11.60734   -7.49889
       H   -18.85259   -9.04892   -5.97050
       O   -18.26456   -8.91246   -6.72147
      H1   -17.83876   -8.10635   -6.54088
       H   -13.11721  -18.28221   -2.98684
       O   -12.37075  -17.79384   -3.38440
      H1   -12.68557  -17.14689   -3.98914
       H   -15.28745  -17.88825   -8.85359
       O   -15.91092  -17.95196   -9.55729
      H1   -15.40730  -18.28767  -10.25646
       H   -12.27686  -16.22603   -0.87444
       O   -11.79263  -15.78583   -1.56126
      H1   -11.83635  -16.49660   -2.20143
       H   -15.49845  -14.23140   -3.90040
       O   -15.48750  -15.16821   -3.82742
      H1   -15.14459  -15.25747   -2.91023
       H   -16.70878  -11.10268   -7.10873
       O   -15.81995  -10.73948   -7.21199
      H1   -16.01972   -9.78336   -7.33082
       H   -12.39074  -13.13814   -3.35243
       O   -11.59061  -13.62624   -3.13337
      H1   -11.87653  -14.31348   -2.51018
       H   -12.41167  -17.28321    1.57823
       O   -12.42639  -17.36029    0.59233
      H1   -13.32385  -17.41766    0.44476
       H   -14.19087  -15.70080   -4.71265
       O   -13.34492  -15.94544   -5.16169
      H1   -12.90263  -15.18801   -5.42449

