96
frame 7 | Written by MDAnalysis XYZWriter (release 2.4.3)
       H     9.64421   -7.02634  -16.31557
       O     9.79354   -7.50743  -17.14489
      H1     9.43189   -6.99189  -17.87338
       H    10.82924   -9.41084  -11.52848
       O    10.88495   -8.47792  -11.33913
      H1    11.14398   -8.14492  -12.21054
       H    11.18066  -19.47455  -17.14221
       O    10.62207  -19.32582  -16.30249
      H1    10.40322  -18.36885  -16.30928
       H     5.67194  -17.40016  -16.40602
       O     6.01618  -16.52288  -16.45048
      H1     6.80548  -16.38187  -15.94252
       H    15.85767  -13.50759  -15.72154
       O    15.37430  -14.11811  -15.15390
      H1    16.06699  -14.76768  -14.96235
       H     9.72538  -13.61819  -18.53442
       O     9.55777  -12.93503  -17.79477
      H1     8.64220  -12.78161  -17.96977
       H    12.66900  -17.39605  -15.06912
       O    13.11158  -17.75074  -15.81358
      H1    13.46867  -18.64363  -15.63737
       H     9.31341  -10.11113  -14.01814
       O     9.77565   -9.75841  -14.82074
      H1     9.14156   -9.26274  -15.29218
       H    13.90875  -13.07133  -11.29496
       O    14.64047  -13.51253  -10.82684
      H1    14.80387  -14.24089  -11.40842
       H    12.80508   -9.53129  -17.39284
       O    13.42592   -9.24508  -18.16458
      H1    13.19917   -8.32575  -18.19856
       H    13.83472  -12.19653  -19.92654
       O    14.34152  -11.66022  -19.24372
      H1    13.77328  -10.85561  -19.13677
       H    10.68322  -13.22112  -16.56614
       O    11.46656  -13.33563  -15.97896
      H1    11.88505  -14.16909  -16.23246
       H     9.16765  -15.12680  -10.95042
       O     8.54279  -14.50874  -10.57571
      H1     8.10157  -14.96052   -9.85989
       H    13.91294  -15.55506  -18.82089
       O    13.85858  -15.82585  -19.73020
      H1    14.78135  -15.88370  -20.03275
       H     7.19721   -8.93455  -17.19278
       O     7.75380   -9.04469  -18.00740
      H1     8.55701   -8.57631  -17.77777
       H    10.56162  -11.63243  -11.23960
       O    10.60202  -11.17016  -12.08242
      H1    11.28789  -11.56745  -12.62563
       H    14.84402   -9.78449  -14.73040
       O    14.59461  -10.67012  -14.41656
      H1    13.83069  -10.78241  -15.03001
       H    12.52194  -12.82408  -14.07137
       O    13.08841  -13.10724  -13.33375
      H1    13.90217  -13.37668  -13.73114
       H    13.00833   -7.35366  -13.07664
       O    12.35596   -7.88733  -13.63543
      H1    12.52233   -8.82645  -13.51295
       H    11.20828  -16.13056  -16.38346
       O    10.31082  -16.48476  -16.25646
      H1     9.91554  -16.63700  -17.18863
       H     7.13070  -10.90635  -18.49121
       O     6.89311  -11.72935  -18.87296
      H1     5.94096  -11.84018  -18.83643
       H    15.08510  -11.21416  -16.07089
       O    15.64040  -11.80061  -16.60947
      H1    15.31151  -11.77175  -17.46772
       H    11.74346  -16.18775  -13.09873
       O    12.45740  -15.88720  -13.66482
      H1    12.42796  -14.94701  -13.44371
       H     7.55888  -14.65960  -13.62027
       O     7.21562  -14.14816  -12.89079
      H1     7.72510  -14.40061  -12.10555
       H    11.55444  -10.12355  -15.48901
       O    12.36744  -10.53196  -15.93118
      H1    12.10967  -11.50817  -16.17357
       H    15.58682  -16.15279  -12.74246
       O    15.16951  -16.06889  -11.89381
      H1    14.51889  -16.80479  -11.85654
       H     8.24114  -11.48979  -12.72859
       O     7.78963  -11.15084  -13.47365
      H1     7.96566  -11.73583  -14.17237
       H    14.13271  -14.75228  -16.49167
       O    13.36402  -15.25135  -16.85479
      H1    13.50827  -16.17555  -16.62955
       H     8.81147  -18.22637  -18.64076
       O     8.38173  -17.41517  -18.22173
      H1     7.65684  -17.34604  -18.85085
       H    16.84925  -12.66883  -12.97585
       O    16.60365  -11.70225  -12.94236
      H1    15.84362  -11.62350  -13.50405
       H     8.66388  -15.73546  -15.53356
       O     7.90991  -15.61982  -14.91835
      H1     7.86748  -16.33658  -14.28474
       H    10.65307  -16.81174  -10.81376
       O    10.29529  -16.33828  -11.58332
      H1     9.65069  -16.94395  -11.94031

