96
frame 0 | Written by MDAnalysis XYZWriter (release 2.4.3)
       H     8.64190   18.13880   12.99511
       O     7.91282   18.38596   12.46666
      H1     7.40960   17.57219   12.46353
       H     4.98656   11.77060   18.47242
       O     5.77006   11.36696   18.07269
      H1     5.98444   10.56027   18.55588
       H    13.26905   17.00140   13.67948
       O    13.15474   16.63694   12.79705
      H1    12.19657   16.65355   12.76524
       H     6.90092   12.40470   17.05649
       O     7.47168   13.06508   16.66278
      H1     8.25667   12.52809   16.41986
       H    11.95024   13.12714   16.09568
       O    11.85314   12.55766   16.91466
      H1    11.37601   13.10495   17.50987
       H     4.85110   13.80754   14.23763
       O     5.61674   13.27890   13.89164
      H1     5.43848   13.01815   12.88800
       H    10.45060   11.56607   16.63336
       O     9.75873   10.91024   16.90347
      H1     9.68974   10.32775   16.15768
       H    10.94046    9.14672   13.73583
       O    11.32444    9.29454   12.87373
      H1    11.19773    8.43652   12.41696
       H     4.66533   17.91126   12.13570
       O     4.35260   16.97695   11.94036
      H1     4.92078   16.54698   11.27221
       H     6.31509   15.45680   12.83970
       O     7.20018   15.78975   13.05679
      H1     7.89457   15.14800   12.83282
       H     8.56749   17.08693   11.34767
       O     8.75400   16.59750   10.46352
      H1     9.64419   16.27344   10.57528
       H    11.27050   15.24996   15.56322
       O    11.31705   14.50934   14.98938
      H1    11.79321   14.68534   14.15134
       H     9.65488    8.20643   15.77768
       O     9.42608    8.76472   15.05685
      H1     8.61439    8.47831   14.61312
       H    11.71741   14.76363   18.68795
       O    10.80523   14.47882   18.70206
      H1    10.30994   15.21898   18.29993
       H     9.98163   13.86970   14.28244
       O     9.22941   13.56408   13.70479
      H1     8.42740   13.60029   14.22460
       H     8.38108   15.25900    9.19036
       O     7.95570   14.68988    8.52963
      H1     8.64126   14.03091    8.26600
       H     5.06989   13.62584   10.82745
       O     5.30452   12.80635   11.25132
      H1     4.49848   12.27594   11.11953
       H     6.93686   14.30776   17.77825
       O     6.53682   14.88826   18.42002
      H1     6.75014   14.61254   19.29861
       H     7.14008   11.76558   10.83866
       O     7.64662   10.94118   10.89937
      H1     8.51463   11.24808   11.05119
       H     9.85095   12.11575   12.30956
       O    10.25722   11.51788   11.70490
      H1    10.50385   10.69438   12.27583
       H    13.21248   14.88758   12.72622
       O    13.11836   13.93267   12.87918
      H1    13.30525   13.54482   11.99940
       H     8.41634   17.35564   17.74388
       O     8.62428   16.52235   18.15452
      H1     7.80613   15.95652   18.21565
       H     6.79075   16.35324   14.41484
       O     6.50014   16.83103   15.27732
      H1     5.92500   16.18678   15.72820
       H     5.92107   15.44212    9.05155
       O     5.53632   15.36384    9.91709
      H1     4.56241   15.21907    9.75621
       H     7.67628   18.12342   15.99927
       O     8.30620   18.65102   16.45388
      H1     7.84866   19.45436   16.78083
       H    11.05157   12.64985    8.88875
       O    11.71565   12.29527    9.53714
      H1    11.32696   12.27662   10.42265
       H     7.12224    8.37982   12.08997
       O     6.95215    8.33017   11.14852
      H1     6.94412    9.25349   11.03084
       H     4.50347   10.22520   13.73134
       O     5.33824   10.10010   14.28266
      H1     5.59198   11.02443   14.50830
       H     3.04714   15.43985   14.67092
       O     3.56450   14.90403   15.26768
      H1     3.05040   14.77658   16.06741
       H    11.79134   18.17184   16.01625
       O    11.38079   17.53423   16.61525
      H1    10.44044   17.74439   16.76966
       H     6.59966    7.45687   14.30699
       O     7.07906    8.22227   14.00758
      H1     6.53272    8.97728   14.25390
       H    10.74006   18.10192   12.36414
       O    10.61487   17.74555   13.26394
      H1    10.59635   18.53456   13.85469

