96
frame 8 | Written by MDAnalysis XYZWriter (release 2.4.3)
       H     7.94239    4.48772  -13.83404
       O     7.74108    4.29927  -12.86280
      H1     8.02397    5.16604  -12.45380
       H     8.00265    8.74767  -13.31503
       O     9.00430    8.72456  -13.19811
      H1     9.11218    8.31660  -12.29232
       H     2.86099    4.60521  -10.92577
       O     3.30820    3.80924  -10.63327
      H1     3.63372    4.06159   -9.78606
       H     4.17075    9.64683  -11.90810
       O     4.99035    9.50133  -11.33505
      H1     5.67648   10.07855  -11.81166
       H     4.62450    4.01499   -7.63610
       O     3.71959    4.14958   -7.96036
      H1     3.19130    3.39499   -7.76436
       H    13.59777    7.47064  -13.29068
       O    12.80220    7.87686  -13.05867
      H1    12.16692    7.20059  -12.81925
       H     4.55386    3.23435  -14.72947
       O     4.40780    2.26397  -14.64853
      H1     5.23102    1.75696  -14.74211
       H     7.60627    4.77449  -16.63668
       O     7.45749    5.21964  -15.76130
      H1     8.27486    5.79379  -15.74823
       H     2.35799    7.27048  -11.07937
       O     2.63894    6.38660  -11.26057
      H1     2.76051    6.50728  -12.23904
       H     4.28802    5.72155  -12.00182
       O     5.20880    5.61084  -12.32373
      H1     5.41554    4.68714  -12.14286
       H     7.63074    7.07119  -10.22346
       O     7.56145    6.75465  -11.13844
      H1     6.65439    6.55419  -11.38329
       H    10.39033    8.27164   -9.69516
       O    10.42163    8.36510  -10.63475
      H1    11.03792    7.67544  -10.89353
       H     2.49555    6.75497  -14.67293
       O     1.89130    6.34231  -14.02787
      H1     1.65855    5.53235  -14.42675
       H     8.46790    2.43591  -10.66568
       O     9.03426    2.39911  -11.44797
      H1     8.56537    3.04896  -12.09450
       H     6.79637    3.64166   -6.39570
       O     6.20422    4.11084   -7.02623
      H1     6.66109    4.98628   -7.08824
       H     3.89857    1.71032  -13.02698
       O     3.56349    1.57291  -12.11754
      H1     3.65069    2.44106  -11.60943
       H     5.08870    5.09789  -14.30779
       O     4.45765    4.97211  -15.01837
      H1     4.90366    4.95862  -15.83419
       H    10.25261    8.91293   -6.95913
       O    10.02404    9.05367   -7.88760
      H1     9.18471    8.59023   -8.10496
       H     6.47476    1.28961   -9.75033
       O     7.13605    1.90537   -9.36178
      H1     6.67327    2.71115   -9.12734
       H    10.82133   11.02622  -14.58966
       O    10.26494   11.08177  -13.73380
      H1     9.93052   10.21174  -13.43901
       H     7.85359    6.86168   -6.13997
       O     8.13321    6.05977   -6.66200
      H1     9.09073    6.09403   -6.49339
       H     7.81141    7.17689   -7.96416
       O     7.70306    7.85688   -8.67259
      H1     6.77922    8.14107   -8.46299
       H    10.05426    6.29360  -11.89029
       O    10.95692    5.97328  -12.00837
      H1    11.13352    5.54333  -11.19873
       H     9.40886    7.89389  -16.04639
       O     9.61110    7.12662  -15.47173
      H1     9.47435    7.52232  -14.62133
       H     7.33811   11.20346  -11.16984
       O     7.02707   11.18957  -12.11616
      H1     6.62144   12.06377  -12.28603
       H     4.97295    9.30427   -9.65850
       O     5.12229    9.22066   -8.69144
      H1     4.45320    8.53600   -8.36189
       H     5.11168   12.10005  -14.08790
       O     5.28179   11.47840  -14.81869
      H1     5.34190   10.58638  -14.52566
       H     7.84487   11.65211   -8.82825
       O     8.52757   11.09692   -9.23180
      H1     8.86305   10.38416   -8.66236
       H     6.17310    7.65783  -13.95768
       O     6.24933    8.57180  -13.61498
      H1     5.92263    8.54219  -12.70216
       H     2.38048   10.61038  -13.61829
       O     2.95882    9.86347  -13.28207
      H1     2.43581    9.32230  -12.71032
       H     3.65784    6.11583   -7.51834
       O     3.42257    7.04284   -7.32549
      H1     2.47470    7.15976   -7.55754
       H     4.60992    8.42688  -15.59033
       O     3.63473    8.49549  -15.39220
      H1     3.56952    9.07966  -14.59511

