96
frame 8 | Written by MDAnalysis XYZWriter (release 2.4.3)
       H   -11.42183   -1.65025  -10.05357
       O   -10.95565   -0.83225  -10.22192
      H1   -10.87296   -0.66747  -11.15666
       H    -8.03109   -0.57533   -7.77647
       O    -8.01868   -0.83391   -8.73906
      H1    -8.95671   -1.05640   -8.94141
       H   -13.29323   -5.49588  -12.15037
       O   -13.14972   -5.39241  -11.21242
      H1   -12.62096   -4.55419  -11.16404
       H   -13.61626   -4.97353   -4.71972
       O   -14.54996   -4.97572   -4.96756
      H1   -15.15029   -5.08438   -4.22939
       H   -10.93783   -7.76763   -5.32525
       O   -11.21629   -7.51258   -4.40114
      H1   -11.63666   -6.62637   -4.40065
       H   -14.81182   -2.27706   -8.50681
       O   -14.82796   -2.83638   -9.25752
      H1   -15.06844   -2.40196  -10.08661
       H    -8.50097   -5.01209  -10.56914
       O    -8.72634   -5.81773  -10.11134
      H1    -9.47321   -6.13938  -10.60285
       H    -9.66899   -5.70445   -4.40148
       O    -8.75004   -5.37551   -4.38975
      H1    -8.46534   -5.48339   -5.27926
       H   -15.45045   -3.62865   -6.06485
       O   -15.53963   -2.77892   -6.52445
      H1   -14.99214   -2.33546   -5.90503
       H   -16.12292   -5.66821   -9.81660
       O   -16.54690   -4.96739   -9.31757
      H1   -15.82912   -4.29674   -9.23876
       H   -12.82738    1.99855  -10.19917
       O   -12.10445    1.83027   -9.62485
      H1   -11.78488    0.91650   -9.85670
       H   -13.26355   -8.37401   -9.61987
       O   -13.89889   -7.64268   -9.40458
      H1   -13.62315   -6.92559   -9.99089
       H    -8.24046   -5.36301   -8.09857
       O    -7.84503   -5.45683   -7.22944
      H1    -6.94579   -5.68234   -7.35827
       H   -14.21328   -1.66780  -12.40623
       O   -13.28558   -1.92930  -12.54043
      H1   -12.87848   -1.83147  -11.66957
       H   -14.25705   -8.07401   -7.19946
       O   -15.00620   -8.05349   -6.60250
      H1   -15.53506   -7.28143   -6.73414
       H   -10.30424   -6.52232  -13.29422
       O   -10.32814   -6.45913  -12.29457
      H1   -11.20350   -6.04691  -12.16100
       H    -7.65917   -3.01978  -12.64126
       O    -7.14917   -2.17101  -12.71377
      H1    -7.46924   -1.62545  -12.01064
       H    -7.82339   -7.97419   -8.99683
       O    -7.74107   -8.23201   -8.04068
      H1    -7.57634   -7.46141   -7.52520
       H   -12.22991   -3.36696  -13.37295
       O   -11.55230   -3.99053  -13.51576
      H1   -11.90576   -4.74695  -13.93998
       H    -9.96649   -6.04795   -9.11557
       O   -10.81306   -6.30355   -8.74021
      H1   -10.53655   -7.05792   -8.12696
       H   -15.14614    2.31510   -8.00760
       O   -15.53363    1.46466   -7.96663
      H1   -14.80050    0.83620   -7.79946
       H   -10.85099   -8.79657   -7.89596
       O   -10.42868   -8.47188   -7.05909
      H1    -9.50165   -8.56614   -7.26194
       H   -11.53846   -4.35426   -4.67742
       O   -11.92877   -4.73607   -3.90887
      H1   -11.80346   -4.11761   -3.21290
       H   -12.76028    0.03077   -7.47580
       O   -13.65300   -0.34403   -7.57386
      H1   -13.97412   -0.44479   -6.68122
       H   -10.61834   -1.16200   -4.48661
       O   -10.07913   -1.03497   -5.27105
      H1    -9.65268   -1.87348   -5.56734
       H   -10.02551   -1.37712  -13.53769
       O   -10.15275   -0.50158  -13.19557
      H1    -9.30734   -0.01221  -13.31900
       H   -11.45501   -3.68397   -8.58920
       O   -11.91429   -3.37201   -9.32119
      H1   -12.86467   -3.26341   -9.13655
       H   -15.05062   -7.39150  -10.60617
       O   -15.61513   -6.74332  -11.12980
      H1   -16.47556   -7.22136  -11.22640
       H    -7.39505   -3.22815   -6.26262
       O    -8.12712   -2.64413   -6.54832
      H1    -7.82310   -2.19734   -7.28902
       H    -8.76061   -5.24088  -13.24426
       O    -8.02337   -4.72679  -12.90221
      H1    -7.24764   -5.10318  -13.36386
       H    -9.94188    0.74886   -6.18806
       O    -9.48773    1.27009   -6.90367
      H1    -8.54040    1.37085   -6.59657
       H   -10.75394   -5.06805   -7.44322
       O   -10.68746   -4.32073   -6.81997
      H1    -9.79349   -3.92769   -6.89549

