96
frame 8 | Written by MDAnalysis XYZWriter (release 2.4.3)
       H    -7.76121    1.57997   11.28663
       O    -7.00808    1.09820   11.56825
      H1    -6.55517    1.71369   12.13991
       H   -16.06432    5.03578    7.12766
       O   -15.75236    4.20239    6.78596
      H1   -14.77446    4.22387    6.90369
       H   -11.86390    6.29589    8.85633
       O   -12.12189    5.87860    8.02858
      H1   -11.33622    6.03299    7.47947
       H    -7.14066   -5.24716    5.48914
       O    -7.74132   -4.85116    4.81639
      H1    -7.30427   -3.99966    4.60897
       H    -9.05114   -1.72913    2.27672
       O    -8.07782   -1.55401    2.17668
      H1    -7.82813   -0.70297    2.67045
       H   -14.35639    2.40856   10.34842
       O   -13.57532    2.39898    9.85392
      H1   -13.34560    1.49563    9.72479
       H    -7.34325    0.42627    6.33066
       O    -6.72437    1.09715    6.08850
      H1    -5.80895    0.67678    6.05941
       H    -9.96110    3.75219    6.59096
       O    -9.28661    3.13308    6.76290
      H1    -8.71639    3.62287    7.34880
       H    -9.12067   -5.46305    7.81792
       O    -8.92019   -4.52048    7.63239
      H1    -8.76922   -4.53199    6.67152
       H   -10.61383    0.14337    3.10397
       O   -10.33922    0.71014    2.32617
      H1   -10.15238    0.03137    1.66714
       H   -11.88168   -0.95872    4.15626
       O   -10.89550   -0.98264    4.31063
      H1   -10.79954   -0.31204    5.03864
       H    -8.79355    3.25582   10.04038
       O    -9.15389    2.52211   10.60297
      H1    -9.98445    2.93753   10.93648
       H   -13.62954   -1.69481    4.53741
       O   -13.53942   -0.73480    4.58489
      H1   -14.36266   -0.28557    4.35175
       H    -7.53426   -3.75325    8.99703
       O    -6.85220   -3.15400    9.33285
      H1    -5.98278   -3.62594    9.17541
       H   -10.21363   -3.17084    7.27884
       O   -10.76497   -2.49803    6.91470
      H1   -10.19593   -2.08160    6.27774
       H   -12.06892   -0.05409   11.42453
       O   -12.35649   -0.49194   10.57241
      H1   -13.26868   -0.63055   10.63412
       H    -7.14606   -1.52550    5.33231
       O    -6.80591   -2.04356    4.60763
      H1    -7.43007   -1.93795    3.89306
       H    -7.80301    3.64571    5.83755
       O    -7.47564    4.39283    5.35931
      H1    -6.49208    4.20038    5.19218
       H    -7.98467    5.78209    9.03242
       O    -8.14399    4.93277    8.59181
      H1    -7.22140    4.82438    8.21889
       H    -9.95808    1.53531    6.71999
       O   -10.22439    0.65875    6.38552
      H1   -11.11533    0.38541    6.73826
       H   -11.80721   -1.05445    7.27630
       O   -12.55632   -0.49860    7.35867
      H1   -12.96014   -0.57911    6.45312
       H   -14.69237   -1.66084    9.07022
       O   -14.82655   -1.23555    9.92464
      H1   -15.35293   -1.90189   10.43991
       H    -7.30205    1.22485    4.26196
       O    -7.54629    0.84734    3.42809
      H1    -8.45890    0.98820    3.27423
       H   -12.97168    5.18644    3.86488
       O   -13.08307    5.42129    4.81691
      H1   -13.23152    4.58315    5.20620
       H   -13.26465    0.21922    1.32491
       O   -12.88163    1.02238    0.94768
      H1   -12.05688    1.15855    1.47082
       H    -8.54691   -0.74632    8.13038
       O    -7.74983   -1.13347    7.70917
      H1    -7.39783   -1.81749    8.26928
       H   -10.15886    4.15106    3.16062
       O   -10.77251    3.51530    2.74537
      H1   -10.41881    2.64492    2.82792
       H    -8.99726   -2.20485   11.69677
       O    -9.94669   -2.08701   11.42911
      H1    -9.95619   -1.63582   10.58513
       H   -10.51592   -0.09570    9.75857
       O    -9.57597    0.06062    9.52642
      H1    -9.43817    1.01583    9.83203
       H    -6.39727    1.38546    7.83514
       O    -6.21242    1.49879    8.79566
      H1    -6.98188    1.05779    9.26294
       H   -12.78010    4.39424    7.54424
       O   -13.14373    3.60937    7.09480
      H1   -13.08880    2.92167    7.81090
       H   -12.20591   -2.52830    9.92587
       O   -12.66543   -3.31925    9.64741
      H1   -12.55010   -3.40302    8.69014

