96
frame 9 | Written by MDAnalysis XYZWriter (release 2.4.3)
       H    -8.12598  -16.31634  -10.43805
       O    -8.72149  -17.02781  -10.73594
      H1    -8.16756  -17.58765  -11.30276
       H    -9.12163  -16.73209   -4.38292
       O    -8.85311  -16.49600   -5.24413
      H1    -8.31614  -17.25737   -5.47902
       H   -17.61963  -13.81170   -9.21841
       O   -17.15702  -14.13959  -10.01812
      H1   -16.54443  -14.82927   -9.81921
       H   -10.96557  -16.52263  -12.24876
       O   -11.04756  -16.25253  -11.29751
      H1   -10.16209  -16.53844  -10.96476
       H   -16.95163  -20.19614   -4.85173
       O   -16.93021  -19.17732   -4.74684
      H1   -17.67883  -18.74574   -5.28486
       H   -12.58879  -18.52201   -8.91692
       O   -12.47554  -18.62686   -7.93794
      H1   -13.38836  -18.52441   -7.59206
       H    -9.94748  -13.36554  -12.20635
       O   -10.36182  -13.58566  -11.38883
      H1   -10.53454  -14.52637  -11.45233
       H   -17.82847  -15.55440   -7.26043
       O   -17.13891  -14.98777   -6.79591
      H1   -16.77729  -15.51937   -6.08102
       H    -9.50167  -15.23976   -8.19892
       O    -9.05351  -14.42128   -8.02338
      H1    -8.84746  -14.19700   -7.06199
       H    -5.39135  -17.10878   -8.21338
       O    -5.94575  -17.91332   -8.23602
      H1    -6.87410  -17.80280   -8.56354
       H   -19.08531  -18.55989  -10.69226
       O   -18.59226  -19.21906  -11.30717
      H1   -18.94098  -20.07722  -10.98214
       H   -15.74037  -18.12345   -5.50712
       O   -15.29538  -17.73150   -6.24359
      H1   -14.72637  -17.01185   -5.94435
       H    -9.40405  -18.84109   -9.81337
       O    -9.00677  -19.27508   -9.03182
      H1    -9.61475  -20.04507   -8.87362
       H   -19.50028  -17.58594   -6.46775
       O   -19.09140  -18.01487   -5.73903
      H1   -19.17422  -17.47035   -4.97461
       H   -15.45234  -19.18943  -11.04695
       O   -15.91562  -20.05861  -10.88992
      H1   -16.70886  -19.80645  -11.37673
       H   -16.18484  -19.93535   -8.74707
       O   -16.04326  -19.94329   -7.80634
      H1   -16.08091  -19.00860   -7.48543
       H   -16.18875  -13.34318   -6.03713
       O   -15.81225  -12.60471   -5.60395
      H1   -16.53221  -12.18431   -5.13551
       H   -14.79443  -13.38512   -4.41478
       O   -14.29827  -14.04084   -3.84420
      H1   -14.58238  -13.99803   -2.90347
       H   -14.36625  -17.14514   -1.77302
       O   -14.83168  -17.58946   -2.47900
      H1   -14.75720  -18.48198   -2.11445
       H   -13.89365  -17.86690  -11.21576
       O   -14.82987  -17.73480  -11.46437
      H1   -14.79615  -17.53578  -12.42662
       H   -17.86908  -17.98764   -1.54013
       O   -18.25801  -18.70613   -2.02210
      H1   -17.67480  -18.77845   -2.75492
       H   -12.72835  -14.07455   -8.52908
       O   -12.73638  -14.96811   -8.31864
      H1   -11.85768  -15.14545   -8.03700
       H   -11.36328  -17.15813   -7.22972
       O   -10.68067  -16.54642   -7.34847
      H1   -10.20142  -16.61173   -6.53858
       H   -12.90323  -18.00232   -3.57547
       O   -12.18076  -17.63597   -4.15611
      H1   -12.62122  -17.10155   -4.79501
       H   -13.53688  -12.76786   -9.77191
       O   -13.14935  -12.25630   -9.02994
      H1   -13.83487  -11.73856   -8.66600
       H   -11.87780  -17.62433  -10.96461
       O   -12.40479  -18.39048  -10.66740
      H1   -11.89964  -19.11764  -11.03333
       H   -15.60685  -16.64265   -8.42387
       O   -16.09244  -16.68672   -9.21041
      H1   -15.59355  -17.18279   -9.87984
       H   -11.60139  -15.94954   -1.92792
       O   -11.06929  -15.72972   -2.69389
      H1   -11.37780  -16.53308   -3.21719
       H   -15.64422  -15.28812   -3.96678
       O   -16.47035  -15.75120   -4.13075
      H1   -16.19076  -16.55363   -3.63816
       H   -12.98046  -13.89670  -11.81905
       O   -13.49316  -14.52679  -11.18844
      H1   -12.86119  -14.93189  -10.56676
       H   -11.50961  -12.72872   -3.92632
       O   -10.69336  -13.26049   -3.83134
      H1   -10.99620  -14.09727   -3.44374
       H   -13.69178  -14.92383   -5.42173
       O   -13.62787  -15.76608   -5.91288
      H1   -13.24864  -15.53197   -6.82174

