96
frame 9 | Written by MDAnalysis XYZWriter (release 2.4.3)
       H    14.94949  -13.65585    3.54799
       O    14.30001  -13.20787    2.96209
      H1    13.52222  -13.82373    2.83814
       H    12.97863  -16.02281   12.35283
       O    12.79751  -16.11741   11.40828
      H1    11.95642  -16.58776   11.26571
       H    17.16201  -15.63167    0.01309
       O    17.00949  -14.74015   -0.32543
      H1    16.39904  -14.88907   -1.09813
       H    11.77463  -13.86801    1.56590
       O    11.73485  -14.32107    2.42566
      H1    11.89507  -15.24082    2.11757
       H    15.78577  -12.74371    2.09337
       O    16.60780  -12.63513    1.62501
      H1    16.57366  -13.17820    0.81407
       H    11.23205  -18.99898   -0.57353
       O    11.10654  -19.93542   -0.38911
      H1    10.62649  -20.33453   -1.09598
       H    15.36802  -14.12126    5.18460
       O    16.16942  -14.09175    4.58186
      H1    16.62923  -13.27409    4.89103
       H    15.57719  -13.63287    8.88743
       O    14.96826  -13.03515    8.46648
      H1    14.18603  -13.06283    9.01060
       H     8.65363  -13.48869    2.60963
       O     8.87516  -14.36024    2.22006
      H1     9.86180  -14.42457    2.19608
       H    12.26687  -12.17691    3.67778
       O    11.47041  -11.62606    3.84415
      H1    11.51560  -11.49026    4.82124
       H    15.09795  -19.30058   -1.72952
       O    15.20847  -18.34633   -1.72619
      H1    15.79617  -18.20661   -0.96106
       H     9.72166  -17.05134    9.66807
       O     9.88396  -17.04025   10.61930
      H1     9.33939  -16.25148   10.94677
       H    14.18223  -13.69382    7.01541
       O    14.08625  -14.38153    6.36877
      H1    14.82510  -14.96800    6.58001
       H    12.75987  -15.92068    8.65093
       O    12.07974  -15.47380    8.08884
      H1    12.60607  -15.13117    7.31783
       H    11.54889  -19.46903    8.00208
       O    12.44576  -19.15336    7.93898
      H1    13.01486  -19.82423    8.27388
       H    17.35352  -17.36923    4.71690
       O    17.10080  -16.69078    4.12730
      H1    16.94438  -15.90768    4.59934
       H    18.47883  -18.77535    9.65493
       O    19.12153  -18.08916    9.58006
      H1    19.26882  -17.84803   10.51719
       H    13.59266  -17.20923   10.38962
       O    13.95354  -17.97035    9.80885
      H1    13.40981  -18.03003    9.00226
       H    12.41333  -14.08203    9.42853
       O    12.86339  -13.51584   10.04107
      H1    13.01763  -14.11938   10.72927
       H    12.55175  -17.56212   -2.04895
       O    12.27297  -16.99112   -1.28385
      H1    11.37403  -16.62150   -1.32007
       H    18.95021  -18.89276    5.82761
       O    18.10466  -18.82463    5.30367
      H1    18.33163  -19.40620    4.52190
       H    13.97007  -18.27414    4.92752
       O    14.35016  -18.52514    5.82292
      H1    13.57456  -18.52962    6.36949
       H    17.85384  -17.87922    0.99464
       O    17.03737  -17.53679    0.57879
      H1    16.40116  -17.48190    1.32998
       H    18.88659  -16.31415    8.76868
       O    18.35274  -15.55544    8.36990
      H1    17.49447  -15.58499    8.81879
       H    16.56650  -16.54500    6.79353
       O    15.60681  -16.52351    7.06562
      H1    15.22808  -17.14786    6.45267
       H     9.95952  -18.94255    5.36006
       O     9.43193  -18.14547    5.30127
      H1     9.13884  -17.84904    6.16862
       H    14.24955  -17.37054    2.38429
       O    15.01100  -17.84566    2.73187
      H1    15.79841  -17.28697    3.04264
       H    12.82240  -16.77497    0.56730
       O    12.91792  -16.73856    1.51905
      H1    12.17060  -17.25016    1.94383
       H    15.71252  -15.91521   10.46396
       O    15.79474  -15.63212    9.58269
      H1    15.42066  -16.29237    9.00567
       H    10.05170  -18.18594    1.95569
       O    10.72310  -18.11460    2.60017
      H1    10.15132  -18.01731    3.43171
       H     9.01954  -16.33509    7.47026
       O     9.59371  -17.02822    7.82814
      H1    10.48461  -16.76740    7.56654
       H     6.58857  -19.75087    5.13816
       O     6.72409  -18.96598    5.70017
      H1     7.71302  -18.74307    5.65351

