96
frame 9 | Written by MDAnalysis XYZWriter (release 2.4.3)
       H     3.70597   -4.42809   -4.95695
       O     4.56202   -4.72316   -5.33804
      H1     4.28132   -5.54911   -5.80629
       H     9.28766  -12.94534   -1.44948
       O     8.49870  -12.83369   -2.01140
      H1     8.85452  -12.46556   -2.81294
       H     1.83933   -7.94739   -3.87066
       O     2.78650   -8.17841   -3.76164
      H1     3.22649   -7.87252   -4.52143
       H     7.21973   -9.61688  -10.45486
       O     6.93828   -9.01162   -9.74793
      H1     7.69768   -8.66708   -9.32917
       H     1.94797  -11.55325   -6.41930
       O     1.00230  -11.31492   -6.19387
      H1     0.87617  -11.87041   -5.39897
       H     8.45460  -14.12572   -3.36302
       O     8.26542  -14.82305   -4.04534
      H1     8.58155  -14.43579   -4.89198
       H     9.13407  -10.50885   -4.11929
       O     9.55383  -11.37150   -4.20071
      H1    10.02213  -11.38330   -5.03073
       H     3.72219  -13.60520   -4.11506
       O     3.49578  -13.66156   -5.00154
      H1     2.78749  -14.32972   -5.09078
       H     2.66909   -9.74163   -9.10929
       O     2.61515   -8.79609   -8.92179
      H1     3.53001   -8.41158   -8.98010
       H     3.74047   -4.99875   -1.43637
       O     3.39014   -5.89674   -1.33592
      H1     3.30046   -6.32931   -2.20068
       H     4.89248  -13.32468   -8.89292
       O     5.50511  -13.17195   -8.16627
      H1     5.02126  -12.76559   -7.47247
       H     7.09878   -5.91386   -7.95863
       O     6.46645   -5.84626   -7.25765
      H1     6.25901   -4.90604   -7.11478
       H     6.38180  -14.90876   -7.89149
       O     6.87527  -15.62733   -7.48719
      H1     7.36204  -16.01607   -8.21233
       H     4.30000  -10.66573   -6.15061
       O     3.88887  -11.45981   -6.52951
      H1     3.84346  -12.12068   -5.81346
       H     2.71184  -11.27225   -8.09348
       O     2.48389  -11.32545   -8.98390
      H1     1.56401  -11.35997   -9.22160
       H     8.58998   -5.67915   -5.45892
       O     9.45702   -6.12404   -5.63419
      H1     9.28356   -6.68389   -6.40412
       H     4.77449   -7.93241   -6.17138
       O     3.98034   -7.39592   -6.03515
      H1     3.23003   -8.04046   -6.34181
       H     8.81868  -12.20464   -8.37916
       O     9.76794  -12.33469   -8.37367
      H1    10.04799  -12.50974   -9.26006
       H     2.02818   -8.70673   -7.28136
       O     1.64836   -8.65323   -6.38118
      H1     1.26284   -9.51626   -6.11306
       H     9.61278   -8.66626   -7.36516
       O     9.11917   -7.94062   -7.73293
      H1     9.79354   -7.50435   -8.22755
       H     6.36203  -11.50456   -7.95083
       O     6.96722  -10.84109   -7.79547
      H1     6.89530  -10.25549   -8.56925
       H     4.71737   -8.86922   -0.98811
       O     4.08306   -8.43499   -0.38233
      H1     4.06813   -7.49746   -0.64833
       H     3.42361  -12.39180  -10.05768
       O     3.67141  -13.20998  -10.52307
      H1     3.92937  -12.96134  -11.44768
       H     0.60731   -7.16092   -5.98037
       O     0.36360   -6.26382   -5.98122
      H1    -0.43067   -6.11834   -5.47537
       H     3.43506   -9.82110   -3.70668
       O     3.58136  -10.77061   -3.51756
      H1     2.84816  -10.84573   -2.90771
       H    11.45477   -9.73295   -8.21883
       O    10.89432  -10.12627   -7.56392
      H1    10.44380  -10.93281   -7.99977
       H     6.13625   -9.99886   -6.61287
       O     5.69815   -9.56960   -5.85716
      H1     6.38924   -9.52174   -5.22488
       H     8.32249   -8.45795   -4.01075
       O     7.84559   -9.28930   -3.82150
      H1     7.15672   -9.17442   -3.20684
       H     5.01336   -6.98335   -8.57476
       O     4.68696   -7.36723   -9.34955
      H1     5.23116   -8.00495   -9.73774
       H     6.28936   -4.68945   -4.93242
       O     7.14170   -4.74010   -4.44262
      H1     7.56471   -3.87910   -4.66878
       H    11.57981   -7.80459   -4.15515
       O    11.24775   -6.96338   -3.75815
      H1    10.46416   -6.70892   -4.29298
       H     5.95583  -10.56270   -1.33007
       O     5.75129   -9.85702   -1.99735
      H1     5.22586  -10.41420   -2.63371

