96
frame 8 | Written by MDAnalysis XYZWriter (release 2.4.3)
       H    -8.52440   11.37879  -12.14579
       O    -9.01363   12.06335  -12.62917
      H1    -9.13650   12.75693  -11.91698
       H    -3.94875   14.38405  -10.16935
       O    -4.38045   13.52335   -9.99745
      H1    -4.70096   13.20023  -10.85337
       H    -4.42292   15.81031  -15.03343
       O    -4.08756   15.10531  -15.62360
      H1    -4.53197   15.28979  -16.49267
       H    -3.25382   16.95241  -13.17035
       O    -3.48012   17.86793  -13.54804
      H1    -2.80613   18.04170  -14.24911
       H    -9.18060   11.35169   -8.89578
       O    -8.96783   10.39411   -8.81590
      H1    -9.02810   10.19799   -7.87082
       H    -9.71161   17.46707   -9.84992
       O   -10.19511   17.62984  -10.71701
      H1    -9.55986   17.60014  -11.43573
       H    -4.65169   13.07710  -15.19499
       O    -4.83967   12.25109  -15.56971
      H1    -4.67188   11.50673  -14.96192
       H    -1.65187   12.59207  -13.98712
       O    -1.69813   13.39907  -13.45007
      H1    -0.72948   13.55187  -13.23684
       H   -11.01369   15.31864  -13.95961
       O   -11.01738   14.45896  -13.53325
      H1   -10.50715   13.83654  -14.10515
       H    -6.20197   14.87727  -10.92526
       O    -6.75274   15.61358  -10.77015
      H1    -6.29879   16.05206  -10.03385
       H    -8.83532   18.60072  -13.45842
       O    -8.33247   17.90554  -12.99435
      H1    -7.77047   17.41510  -13.62596
       H    -9.02765   16.60716   -7.37401
       O    -9.76819   16.77006   -7.99809
      H1   -10.54234   17.04570   -7.41332
       H    -5.85187   11.17819   -8.17335
       O    -5.26285   11.84723   -7.70618
      H1    -4.90771   12.35738   -8.49195
       H    -7.13492   10.14221  -11.10460
       O    -7.68236    9.95999  -11.85774
      H1    -8.38126    9.26405  -11.72382
       H    -5.40751   11.11602  -12.71623
       O    -5.34989   11.92804  -12.17827
      H1    -5.69036   12.54562  -12.83727
       H    -7.83939   17.77516   -5.92144
       O    -7.77131   16.84007   -5.80203
      H1    -6.87943   16.59595   -5.90309
       H    -5.25632   17.29858  -13.86314
       O    -6.04794   16.91956  -14.31328
      H1    -6.18455   17.26316  -15.18641
       H    -1.41091   11.19358  -10.69315
       O    -1.23945   11.09130  -11.66300
      H1    -1.68366   11.80747  -12.05643
       H    -5.16101   16.36356   -7.88794
       O    -5.35001   16.93504   -8.68178
      H1    -4.92373   17.79069   -8.35890
       H    -6.25671   14.49043   -6.02411
       O    -5.59011   15.16693   -6.31310
      H1    -4.86522   15.03819   -5.63547
       H    -7.04456   14.96405  -16.28010
       O    -7.28430   14.06949  -16.48608
      H1    -6.89669   13.56689  -15.80164
       H    -3.79318   10.57476   -7.54281
       O    -3.26780    9.76743   -7.47177
      H1    -3.46831    9.45418   -6.55760
       H    -9.36516   13.52446   -9.32441
       O    -9.61146   12.97245   -8.52850
      H1   -10.26422   13.57732   -8.13579
       H    -7.81162   13.38596  -13.22756
       O    -6.94074   13.76453  -13.42164
      H1    -6.95355   14.72386  -13.30123
       H    -6.55330   12.69947   -6.87621
       O    -7.36746   13.05562   -6.51102
      H1    -8.01498   12.98645   -7.25303
       H    -6.20392    9.18749   -9.06901
       O    -6.32975   10.08892   -9.42497
      H1    -7.29507   10.24507   -9.39943
       H    -2.75583   14.68561  -12.57889
       O    -3.23831   15.46120  -12.17280
      H1    -2.66089   15.80735  -11.46896
       H   -11.72596   14.86524  -11.80694
       O   -11.73460   15.33423  -10.96127
      H1   -11.18513   16.08505  -11.16524
       H    -9.06010   13.62065  -15.77794
       O    -9.65261   12.95893  -15.46525
      H1    -9.31678   12.35958  -14.71762
       H    -2.86560   12.75797   -9.04976
       O    -1.99771   12.41733   -8.81645
      H1    -1.65042   13.28509   -8.51917
       H    -2.21370   15.70186   -8.55908
       O    -1.84962   15.91281   -9.43501
      H1    -1.74266   16.88559   -9.43495
       H   -10.00608   14.64380  -11.09684
       O    -9.23212   14.15592  -10.85823
      H1    -8.49364   14.85970  -10.92725

