96
frame 9 | Written by MDAnalysis XYZWriter (release 2.4.3)
       H     8.31067    4.31353  -13.83173
       O     7.98756    4.03549  -12.92668
      H1     7.94808    4.84290  -12.44912
       H     8.76157   -5.52144  -15.26222
       O     8.22064   -4.88296  -15.76156
      H1     7.68993   -4.48010  -15.06658
       H     8.39237    1.44542  -16.00487
       O     7.72699    1.68588  -16.66389
      H1     8.19179    2.19965  -17.28632
       H     9.06819   -1.25687  -19.94447
       O     9.35857   -1.69637  -19.12690
      H1    10.13784   -2.20166  -19.39507
       H    10.27355   -0.90169  -17.61017
       O    10.97427   -0.89548  -16.91917
      H1    10.78911   -1.61902  -16.33051
       H     1.67211    2.97314  -16.12246
       O     1.12516    3.75404  -15.89869
      H1     1.11243    3.79210  -14.87661
       H     5.20144   -0.09128   -9.59940
       O     5.73545    0.06052  -10.38257
      H1     5.26645    0.78350  -10.86941
       H     4.46055    2.54612  -14.61041
       O     4.19632    1.70832  -14.18110
      H1     4.82079    1.05152  -14.52787
       H     8.50645    4.25343  -16.55594
       O     8.37035    4.58930  -15.61007
      H1     8.13918    5.52651  -15.76360
       H    10.31907    0.24170  -15.64101
       O     9.69814    0.84781  -15.13939
      H1     9.41618    0.25462  -14.46345
       H     1.01564   -0.95734  -14.98279
       O     1.02935   -1.01177  -15.92054
      H1     1.58730   -0.29735  -16.21311
       H     5.23054    5.68213  -13.08344
       O     5.57873    5.23284  -13.81068
      H1     6.43319    4.84983  -13.62078
       H     7.01222   -4.49788  -13.26904
       O     6.61015   -3.74878  -13.73434
      H1     5.71486   -4.08907  -13.95626
       H     1.78919   -3.02545  -12.22891
       O     2.68010   -3.10214  -11.88173
      H1     2.61308   -3.86851  -11.33383
       H    10.96062    2.90729  -17.79072
       O    10.14109    3.07344  -18.19231
      H1    10.22380    4.01324  -18.43173
       H     8.53152    2.26259  -10.89481
       O     9.14138    2.12336  -11.59799
      H1     8.94966    2.78531  -12.26378
       H     1.29837    0.96176  -10.14283
       O     1.79967    0.19531  -10.45769
      H1     2.67609    0.58263  -10.62862
       H     6.83932   -0.25784  -14.38740
       O     6.24123   -0.10292  -15.13928
      H1     6.81280    0.56406  -15.60271
       H     3.83039    2.06558  -12.32236
       O     3.90640    1.86924  -11.39621
      H1     3.58444    2.62127  -10.85593
       H     5.41714    4.32474  -15.45242
       O     5.12592    3.67526  -16.10490
      H1     5.99619    3.40660  -16.41647
       H     1.15116   -0.52046  -12.13377
       O     0.69428   -1.03719  -12.82385
      H1    -0.02605   -1.49944  -12.40824
       H     7.71760   -0.60970  -12.13456
       O     8.29795   -0.15441  -12.75520
      H1     8.61588    0.72135  -12.30540
       H    12.31555    2.63475  -15.89097
       O    11.74656    2.82054  -15.13622
      H1    11.01813    2.14381  -15.09957
       H     9.41170   -2.11419  -10.00161
       O     9.45257   -2.31648  -10.92445
      H1     8.56530   -2.25362  -11.30970
       H    10.44816   -2.60683  -14.27126
       O     9.90083   -2.51064  -15.11878
      H1     9.49546   -3.40491  -15.27898
       H     3.88212    4.03605  -17.85079
       O     3.31685    3.46628  -18.39383
      H1     3.07996    3.98840  -19.13403
       H     2.90540    1.60694  -15.41151
       O     2.39046    1.44538  -16.20833
      H1     2.96182    1.59907  -16.93810
       H     2.61048   -4.05512  -14.89269
       O     1.82444   -4.62139  -14.84301
      H1     1.28979   -4.05835  -15.43594
       H     6.01257   -1.46959  -11.31455
       O     6.70711   -2.12360  -11.50561
      H1     6.60095   -2.50171  -12.37796
       H     3.55711   -2.12270  -15.01767
       O     3.92430   -2.94147  -14.58361
      H1     3.60058   -2.90675  -13.65948
       H     8.18537   -4.21790  -17.49464
       O     8.33633   -4.08756  -18.44722
      H1     8.75894   -3.18464  -18.45690
       H     6.65439   -1.23385  -17.02289
       O     6.59114   -1.38081  -17.95975
      H1     7.53907   -1.38040  -18.24286

