96
frame 9 | Written by MDAnalysis XYZWriter (release 2.4.3)
       H     5.55101    2.38803   11.31386
       O     5.09419    1.65798   11.71348
      H1     5.35219    1.76002   12.65638
       H     1.85486    4.23120   10.17252
       O     2.28226    4.93005   10.69413
      H1     1.57364    5.15311   11.35747
       H     4.61671   -2.28568   13.03092
       O     5.25466   -2.65980   12.41810
      H1     5.02507   -2.41370   11.52827
       H     3.97176   -3.87900    8.83615
       O     4.58537   -3.49241    9.49661
      H1     5.27518   -4.16746    9.68035
       H     2.69168   -2.97736    7.39292
       O     2.82129   -3.93690    7.52981
      H1     1.89703   -4.21056    7.43825
       H     4.59644   -0.86775    5.62564
       O     3.83568   -0.24605    5.58784
      H1     4.02928    0.51464    6.23528
       H    -1.54769   -0.30309   13.04021
       O    -1.99511   -0.73303   13.85164
      H1    -2.00049   -0.04802   14.52326
       H    -0.87563   -2.66130    7.88682
       O    -1.58818   -2.13120    7.54641
      H1    -1.15610   -1.42974    7.02129
       H     2.68067    0.64329    9.75836
       O     2.31915   -0.18799   10.02555
      H1     3.17939   -0.72614   10.14946
       H     0.01988   -3.14499   14.30538
       O    -0.86269   -3.16884   13.86973
      H1    -1.20053   -2.23680   14.06250
       H    -0.05799   -2.15770   10.93421
       O     0.59649   -2.51854   11.57286
      H1     0.12590   -2.89438   12.28787
       H     2.74684   -1.04071   13.84540
       O     3.57915   -1.49598   14.15886
      H1     4.03285   -0.96896   14.81833
       H     2.27146   -4.79934   10.94218
       O     1.38719   -4.89030   10.63027
      H1     0.98438   -4.02440   10.72559
       H     0.54206   -0.77387   15.34434
       O     0.33698   -0.45010   16.24342
      H1     0.77876   -1.13474   16.77635
       H    -2.03563   -2.43110   10.28325
       O    -1.51239   -1.62501   10.24769
      H1    -1.58340   -1.40845    9.29042
       H     6.14425    0.90442   14.15990
       O     5.71722    1.78319   14.30641
      H1     4.96442    1.61822   14.87771
       H     0.47675   -0.80114    6.20786
       O    -0.24003   -0.80829    5.58597
      H1    -0.56840    0.10253    5.54264
       H     8.53799   -1.63843    9.78600
       O     7.92068   -1.53759   10.52185
      H1     7.98197   -2.45161   10.90606
       H     6.31874   -0.79860   10.34531
       O     5.47819   -0.49272    9.99873
      H1     5.18317    0.15094   10.66842
       H     4.30582   -4.25824   12.40021
       O     3.99845   -5.04540   11.95143
      H1     4.33228   -4.90360   11.01843
       H     2.56684   -0.86908    6.75484
       O     1.73918   -1.00635    7.26308
      H1     1.80455   -0.42994    8.03796
       H    -0.92066    3.50427    8.22351
       O    -0.13352    3.27206    7.66826
      H1    -0.03281    3.93218    7.01974
       H     5.90686   -1.06216   13.20427
       O     6.69875   -0.58277   13.55235
      H1     7.27515   -1.21110   13.92789
       H     1.67430    2.84168    8.33211
       O     2.25618    2.52804    9.01192
      H1     2.99464    2.12786    8.54027
       H    -1.62957    0.35228   11.17350
       O    -1.16164    0.76374   11.86476
      H1    -0.18121    0.50129   11.83242
       H     1.03450   -1.00846   12.50685
       O     1.06580   -0.58376   13.39280
      H1     1.31688    0.33796   13.22697
       H     0.21761   -5.63714    7.60236
       O     0.42511   -4.86845    8.09789
      H1     0.75469   -5.06773    8.94763
       H     6.04976   -2.85871    8.48512
       O     6.93449   -2.94487    8.04154
      H1     7.07922   -3.89367    7.87000
       H    -0.67355    2.13403    6.20800
       O    -1.02212    1.65147    5.42297
      H1    -0.33137    1.76368    4.73266
       H     4.99325    0.89946    8.33936
       O     4.45179    1.45263    7.76076
      H1     4.85479    2.25517    7.49033
       H     2.74452    1.94493   11.88049
       O     1.86810    2.02767   12.27442
      H1     1.75105    2.97749   12.25641
       H    -1.76504    3.80720   12.73394
       O    -0.95033    3.69210   12.19425
      H1    -0.95522    2.72448   12.02534

