96
frame 11 | Written by MDAnalysis XYZWriter (release 2.4.3)
       H     7.24839    9.69842   10.09134
       O     7.73189    8.90690   10.19928
      H1     7.88511    8.50553    9.32597
       H     6.92337    3.51825    4.52790
       O     6.81396    2.73250    5.03994
      H1     7.60310    2.55584    5.55173
       H     7.37168   10.00870    4.73066
       O     8.04670    9.46509    4.27920
      H1     7.58142    9.22829    3.41269
       H     2.61480    5.78001    7.66321
       O     2.84109    4.99962    7.12555
      H1     3.71767    4.68047    7.25627
       H    10.99100    9.66336   11.48951
       O    11.43191   10.45813   11.82833
      H1    11.87341   10.87534   11.07076
       H     5.64288    3.28256    6.35463
       O     5.04342    3.30340    7.10160
      H1     5.46628    3.93378    7.64791
       H     7.52499    7.79011    4.80271
       O     7.53487    6.95953    5.28951
      H1     8.44171    6.55824    5.21952
       H     0.82613    8.46368    6.49541
       O     1.53019    8.95675    7.01214
      H1     1.33016    9.89413    6.81296
       H    12.59562    8.00811    6.93848
       O    13.32596    8.43764    6.44654
      H1    13.05760    9.34295    6.30785
       H     2.77410   12.21255    6.41007
       O     1.98479   11.99227    6.90412
      H1     2.12523   12.26053    7.82958
       H     9.61293    5.40979    3.90037
       O     9.95946    5.79436    4.70366
      H1    10.06234    5.04795    5.35473
       H     6.74025    7.64247   12.99178
       O     6.37671    7.13123   12.23672
      H1     6.74061    7.57391   11.43789
       H     7.29271    5.55153    3.89779
       O     6.82623    4.95924    3.29172
      H1     7.47123    4.92410    2.51500
       H     7.38669    7.31430    6.81526
       O     6.93681    7.67184    7.63154
      H1     6.84216    8.64783    7.47254
       H    10.98624   10.46457    4.84653
       O    10.69250   10.00024    4.00925
      H1     9.74191    9.84227    4.17145
       H     9.06871   13.38614    5.04122
       O     9.05224   12.61069    4.43348
      H1     9.96591   12.46685    4.21256
       H     2.80601    8.24269    3.25288
       O     2.67958    8.53366    2.32888
      H1     2.06628    9.24354    2.33586
       H     6.26623    5.92329    8.25444
       O     6.20981    5.09773    8.73536
      H1     5.56202    5.30136    9.43452
       H     5.23545   13.41884   10.51863
       O     4.85533   12.67760   11.03595
      H1     3.97483   12.54611   10.58507
       H    10.86061    7.51448   10.93629
       O    10.68587    8.35045   10.44208
      H1     9.75024    8.54965   10.56885
       H     6.49401   12.13507   10.56604
       O     7.33496   11.67564   10.34156
      H1     7.86693   11.63962   11.14135
       H     5.38694   10.86844    2.79455
       O     5.22163   10.37058    3.58778
      H1     5.10574    9.45153    3.26655
       H     3.43535   12.54123    4.16963
       O     3.86666   12.33502    4.99766
      H1     4.29290   11.50107    4.76227
       H    11.69631    7.72752    8.92307
       O    12.22405    7.12985    8.34695
      H1    11.68771    6.34478    8.10310
       H    11.66936   11.08255    7.17791
       O    12.12620   10.87088    6.34693
      H1    12.75504   11.55813    6.12581
       H     8.03514   10.79423    7.28761
       O     7.21350   10.69984    7.70260
      H1     7.20930   11.12441    8.56722
       H     4.84647   13.66457    5.55380
       O     5.27803   14.47030    5.98260
      H1     4.47794   14.84034    6.41709
       H     2.61254    8.69508   11.44627
       O     3.38059    9.28356   11.46546
      H1     4.05468    8.69392   11.73533
       H     2.93188    7.20981    9.02569
       O     2.08508    6.96911    8.63664
      H1     1.81860    7.67457    8.03123
       H     3.61614    5.34651   10.37832
       O     4.25916    6.09186   10.34178
      H1     4.43774    6.27691   11.27113
       H     3.25700    7.86086    5.72504
       O     3.81110    7.77051    4.91079
      H1     4.38708    6.99842    5.03243
       H     7.90754    4.75490    9.76473
       O     8.57103    4.23460   10.23012
      H1     8.06812    4.17825   11.03516

