96
frame 10 | Written by MDAnalysis XYZWriter (release 2.4.3)
       H   -12.16761  -12.33249   13.13571
       O   -12.32590  -13.18129   12.62498
      H1   -13.17774  -13.57844   12.89377
       H    -7.77163   -7.93658    8.72701
       O    -8.67630   -8.12894    8.41918
      H1    -8.87369   -9.08148    8.67620
       H   -13.29001   -7.04346   10.24221
       O   -14.12753   -7.47435   10.00134
      H1   -14.46760   -7.75309   10.82794
       H   -10.20287   -8.23842   17.48413
       O   -10.73194   -8.85570   16.93713
      H1   -10.37432   -8.76414   15.99423
       H    -9.33673  -11.31079    9.43224
       O    -8.53784  -10.75429    9.59159
      H1    -7.98837  -11.16244    8.87309
       H    -8.45741  -10.60800   11.48365
       O    -8.02485  -10.43114   12.28694
      H1    -7.08682  -10.53794   12.06562
       H   -11.18531   -8.92632   11.39509
       O   -11.33347   -9.91144   11.47024
      H1   -12.20623  -10.00956   11.05978
       H    -7.77454  -11.59687   13.50885
       O    -7.68283  -12.19449   14.35030
      H1    -8.57444  -12.22271   14.69617
       H    -7.41531   -4.56377   11.24566
       O    -7.03527   -4.85165   12.08279
      H1    -6.44615   -4.21023   12.56040
       H   -13.04252  -10.56038   14.14821
       O   -12.18343  -10.83072   13.82938
      H1   -12.00228  -10.30684   13.01917
       H    -7.15834   -7.29124   15.06112
       O    -6.83237   -6.38203   15.05358
      H1    -7.62664   -5.90333   14.68883
       H    -4.00740  -10.97160   15.39404
       O    -4.20785  -10.24398   14.79035
      H1    -3.35165  -10.17037   14.32521
       H    -5.79228   -8.15707   10.29869
       O    -6.11405   -7.79863    9.46758
      H1    -5.72100   -8.46503    8.84154
       H    -5.65441   -7.94955   17.80913
       O    -5.59085   -8.88426   17.97671
      H1    -5.87745   -9.33829   17.11191
       H   -11.09074   -6.63135   10.01234
       O   -11.24111   -7.18058   10.78423
      H1   -11.21003   -6.64854   11.59444
       H    -4.83004  -12.00229   11.46974
       O    -5.15476  -11.26731   12.04846
      H1    -4.83043  -11.58864   12.85657
       H   -10.76510  -11.37052   14.81190
       O   -10.18189  -11.95416   15.32386
      H1   -10.20419  -11.63907   16.26903
       H    -8.32202   -5.17552   13.12036
       O    -8.99640   -5.48889   13.65665
      H1    -9.70135   -4.81557   13.80120
       H    -6.18278   -9.41423   14.71356
       O    -6.68530   -9.00883   15.40605
      H1    -7.60614   -9.04166   15.05714
       H   -10.70469  -14.36852   10.05966
       O   -10.61770  -13.44026   10.41403
      H1   -11.29178  -13.34234   11.12611
       H   -12.14647   -4.57336   12.86470
       O   -11.77753   -3.67679   13.06383
      H1   -11.09160   -3.37908   12.46678
       H    -5.12667   -5.38814    8.41394
       O    -5.34917   -5.19969    9.35956
      H1    -5.71396   -6.06403    9.68420
       H    -8.96779  -13.83199   11.61463
       O    -8.36623  -14.62234   11.54371
      H1    -7.99523  -14.83938   12.39830
       H    -4.80833   -9.60936   11.80363
       O    -4.54809   -8.68712   11.51168
      H1    -4.74561   -8.12616   12.31667
       H    -9.20760   -7.35957   13.85685
       O    -9.16051   -8.30849   14.09757
      H1    -8.76781   -8.83901   13.36992
       H    -8.52237   -5.35596   17.26997
       O    -7.94017   -6.05949   17.54886
      H1    -7.33398   -5.96268   16.83502
       H    -6.18717  -12.16054   17.32873
       O    -7.05026  -12.21869   17.01294
      H1    -7.06975  -12.08920   16.09213
       H    -3.91094   -7.07877   16.56548
       O    -3.43162   -7.65580   15.89995
      H1    -3.90896   -8.51630   15.72014
       H    -5.28512   -6.54609   13.75416
       O    -4.35212   -6.76943   13.64889
      H1    -3.97823   -7.12629   14.53650
       H    -9.94606  -10.50161   17.43550
       O    -9.49767  -11.22615   17.87506
      H1    -8.57714  -11.32868   17.59865
       H   -13.00856   -7.05026   12.80824
       O   -12.93792   -6.17163   13.10885
      H1   -13.62206   -6.00450   13.80661
       H   -15.30043   -8.38608   12.83355
       O   -14.41740   -8.79962   12.65153
      H1   -14.57510   -9.75655   12.65847

