96
frame 10 | Written by MDAnalysis XYZWriter (release 2.4.3)
       H    -6.77307   -8.79813    3.83601
       O    -6.70450   -8.79821    4.84539
      H1    -7.57310   -8.46273    5.13393
       H    -5.99741  -16.45051   10.60201
       O    -5.20871  -16.29426   10.03917
      H1    -4.93510  -17.21635    9.91009
       H    -7.77163   -7.93658    8.72701
       O    -8.67630   -8.12894    8.41918
      H1    -8.87369   -9.08148    8.67620
       H    -6.21831  -16.77008   12.99848
       O    -6.25355  -15.84425   13.25290
      H1    -5.52761  -15.39161   12.72739
       H    -6.31128  -16.62170    6.14465
       O    -6.41770  -17.41286    5.70191
      H1    -6.46345  -17.21427    4.72394
       H    -8.88700  -11.89010    6.06370
       O    -9.66433  -12.10367    5.56066
      H1   -10.35023  -12.36977    6.19867
       H    -9.33673  -11.31079    9.43224
       O    -8.53784  -10.75429    9.59159
      H1    -7.98837  -11.16244    8.87309
       H    -8.45741  -10.60800   11.48365
       O    -8.02485  -10.43114   12.28694
      H1    -7.08682  -10.53794   12.06562
       H    -9.92172  -14.69619    6.77901
       O    -9.79409  -15.58234    7.12835
      H1   -10.34003  -15.74081    7.92699
       H    -1.61809  -16.21111    9.24229
       O    -1.56845  -15.26154    9.17141
      H1    -2.07670  -14.87915    8.50240
       H    -3.75077  -16.17200   11.36274
       O    -3.49700  -15.66474   12.10340
      H1    -2.96554  -16.17318   12.67941
       H    -5.79228   -8.15707   10.29869
       O    -6.11405   -7.79863    9.46758
      H1    -5.72100   -8.46503    8.84154
       H   -11.09162  -16.47421    4.08399
       O   -11.44954  -16.40893    4.94633
      H1   -10.72089  -16.05976    5.45021
       H    -3.55691  -12.26681    9.35016
       O    -4.06498  -12.92577    9.81374
      H1    -3.43571  -13.61272    9.99710
       H    -3.89476  -12.86024    1.61602
       O    -3.75663  -13.02285    2.54705
      H1    -4.52080  -13.54612    2.84992
       H    -8.37511  -15.94275   10.46797
       O    -8.16578  -16.80549   10.17546
      H1    -8.58294  -16.98380    9.35085
       H   -10.30580  -10.85974    4.64280
       O   -10.64231  -10.02421    4.32707
      H1   -10.04399   -9.71718    3.64298
       H    -4.83004  -12.00229   11.46974
       O    -5.15476  -11.26731   12.04846
      H1    -4.83043  -11.58864   12.85657
       H    -3.47754  -13.71401    7.26034
       O    -3.02070  -14.49486    6.94657
      H1    -3.69715  -15.14429    6.88625
       H    -6.83657  -13.97123    2.69648
       O    -6.11427  -14.30280    3.16592
      H1    -6.10484  -15.24404    2.94736
       H    -8.76008  -19.21291    7.40697
       O    -8.10146  -18.49005    7.61602
      H1    -7.78105  -18.22604    6.74175
       H    -4.21802   -8.86091    7.36319
       O    -5.04944   -9.37108    7.41574
      H1    -5.44720   -9.16024    6.55624
       H   -10.70469  -14.36852   10.05966
       O   -10.61770  -13.44026   10.41403
      H1   -11.29178  -13.34234   11.12611
       H    -8.96779  -13.83199   11.61463
       O    -8.36623  -14.62234   11.54371
      H1    -7.99523  -14.83938   12.39830
       H    -7.64201  -15.48001    7.47270
       O    -6.66723  -15.19662    7.49860
      H1    -6.36308  -15.63433    8.30495
       H   -12.72114  -13.33775    6.71562
       O   -11.93893  -13.80516    6.42204
      H1   -12.28258  -14.31846    5.68894
       H    -2.61910  -13.39773    3.75379
       O    -2.02592  -13.68359    4.47547
      H1    -2.62865  -13.91219    5.26579
       H    -4.44059  -12.09624    5.75821
       O    -5.35204  -12.21918    5.46932
      H1    -5.28066  -12.29143    4.53695
       H   -10.23074  -16.37879   10.40737
       O   -10.91581  -16.08384    9.79795
      H1   -11.52761  -16.81707    9.57521
       H    -7.25754  -13.15437    7.57654
       O    -7.34785  -12.21597    7.35510
      H1    -6.74341  -12.11735    6.62416
       H    -9.30352   -7.98748    6.67218
       O    -9.48580   -7.90712    5.72815
      H1   -10.05125   -8.70483    5.47742
       H    -2.48648  -10.93435    7.10714
       O    -3.26275  -11.43405    7.42318
      H1    -3.97725  -10.84129    7.50133

