96
frame 11 | Written by MDAnalysis XYZWriter (release 2.4.3)
       H   -18.82859    0.57956   -3.59820
       O   -19.05928    1.32947   -4.13654
      H1   -18.24360    1.47225   -4.62790
       H   -15.49970    5.96352   -2.74167
       O   -14.68179    5.96734   -2.19561
      H1   -14.30883    6.83318   -2.46110
       H   -14.73455    8.25148   -3.40747
       O   -13.83670    8.38362   -3.08621
      H1   -13.85045    8.95022   -2.27927
       H   -17.18408    0.43642    2.17380
       O   -16.71029    1.20428    2.46659
      H1   -17.37679    1.90430    2.43747
       H   -16.59884    5.06791    4.69283
       O   -17.29388    4.48699    4.95696
      H1   -16.90247    3.93269    5.62173
       H   -17.64727   12.19795    1.45557
       O   -16.92797   12.11818    2.03703
      H1   -16.81655   11.14161    2.08300
       H   -16.21037    2.09430   -2.55636
       O   -15.42043    1.83677   -3.07038
      H1   -15.71166    1.99690   -3.99063
       H   -18.03716    9.77542   -4.89976
       O   -18.94526    9.72436   -4.48639
      H1   -18.71793    9.19422   -3.68024
       H   -16.31056    9.47434   -4.19331
       O   -16.29708    8.54027   -4.43574
      H1   -16.58126    8.46625   -5.39230
       H   -18.96605   10.02823    1.85728
       O   -19.10744    9.12608    1.42096
      H1   -20.09270    8.99386    1.55405
       H   -18.04932    5.95998    5.90784
       O   -18.51429    6.59472    6.45895
      H1   -18.02504    7.42103    6.35263
       H   -14.97704    3.14131    0.15831
       O   -14.78552    4.06178    0.40500
      H1   -14.61166    4.63082   -0.34830
       H   -15.78010   10.27677    0.54269
       O   -15.40845   10.73558   -0.21414
      H1   -16.06865   10.71263   -0.92719
       H   -12.95959    3.42911    3.39051
       O   -13.79426    3.78496    3.08430
      H1   -14.02984    3.16430    2.36340
       H   -17.06659    3.09409   -5.74968
       O   -16.76281    2.22997   -5.54683
      H1   -16.17046    2.11219   -6.25402
       H   -17.55651    6.20968   -3.08770
       O   -17.06058    5.43223   -3.44514
      H1   -16.90871    5.52255   -4.37773
       H   -19.03248   12.22401   -2.24376
       O   -19.33017   11.79668   -1.36834
      H1   -19.24511   12.42422   -0.67108
       H   -19.83494    5.67615   -0.02978
       O   -19.32581    6.49746   -0.14197
      H1   -19.30676    6.81659   -1.05292
       H   -18.82095   -1.90474   -0.03382
       O   -19.63929   -1.35753    0.10588
      H1   -19.64077   -0.91467    0.94732
       H   -19.26448    2.99643    3.20009
       O   -18.56359    3.36004    2.61176
      H1   -18.05716    4.00669    3.13700
       H   -19.61503   -0.89014   -2.27397
       O   -18.84250   -1.15121   -2.73529
      H1   -18.14768   -1.48040   -2.14979
       H   -14.21059    3.16398   -2.37781
       O   -13.35767    3.61636   -2.51858
      H1   -13.64203    4.55213   -2.52614
       H   -15.57958    9.23689    2.75397
       O   -16.37819    9.38033    2.28046
      H1   -16.96153    8.62596    2.20867
       H   -17.11760    8.83023    4.99340
       O   -16.96794    8.84629    5.91617
      H1   -17.29539    9.75539    6.09082
       H   -17.55205    5.33818   -7.05847
       O   -17.62200    4.70951   -6.36105
      H1   -18.36110    4.09430   -6.56261
       H   -14.27768    1.28776    0.19127
       O   -15.24997    1.44890    0.23535
      H1   -15.52337    1.33567    1.18068
       H   -18.98090    3.69108   -0.72863
       O   -19.59129    3.67807    0.08243
      H1   -19.03303    3.36538    0.83468
       H   -17.60980    3.93338   -2.82781
       O   -17.98791    3.23513   -2.29113
      H1   -18.60334    2.82101   -2.93458
       H   -18.55066    9.42448   -0.33665
       O   -18.03895    9.04435   -1.05488
      H1   -17.74935    8.20850   -0.69064
       H   -13.33831    5.48970    1.17691
       O   -12.61094    6.14124    1.13930
      H1   -12.10890    6.01531    1.98276
       H   -17.33630   10.14935   -2.25272
       O   -16.62496   10.75387   -2.59974
      H1   -17.06524   11.51588   -2.95174
       H   -16.80472    5.80990    1.45818
       O   -17.37870    6.44045    1.87491
      H1   -18.15232    6.60428    1.28459

