96
frame 10 | Written by MDAnalysis XYZWriter (release 2.4.3)
       H    17.29127   -1.62094   13.03386
       O    16.48247   -1.24973   13.38225
      H1    16.68308   -0.51520   13.97548
       H    13.22766    5.51054   16.54482
       O    13.14743    4.63296   16.86136
      H1    12.65169    4.12822   16.23279
       H    10.58840    5.45070   17.87506
       O    11.07127    4.86597   18.49596
      H1    11.89825    4.70678   18.04752
       H     8.52632   -3.62147   17.28985
       O     9.20124   -3.51958   16.56805
      H1     9.82929   -2.82978   16.77399
       H     9.75996    3.62383   18.27480
       O     8.94715    3.09780   18.41265
      H1     9.24207    2.49470   19.11202
       H     8.49798    2.34138   16.88914
       O     8.43202    2.00534   15.92819
      H1     7.50022    2.23210   15.66012
       H    16.05704   -2.13930   17.14054
       O    16.18588   -1.28317   16.69130
      H1    15.34571   -0.81485   16.65919
       H    16.64944    1.58426   15.42026
       O    17.17485    0.81909   15.17972
      H1    17.19937    0.25166   15.98140
       H    10.34173    3.02561   15.65620
       O    11.26136    2.88301   15.56600
      H1    11.51370    3.30173   14.75837
       H     9.82002   -1.40040   19.04905
       O     9.84954   -1.77397   19.94540
      H1    10.65209   -2.33821   19.97818
       H    13.20196    2.68621   13.20731
       O    12.59698    3.40858   13.13375
      H1    11.94619    3.19555   12.44676
       H    16.00750   -1.20245   11.61723
       O    15.83744   -1.26369   10.67444
      H1    15.99894   -2.21812   10.44386
       H    16.56448    3.61761   13.76660
       O    16.60902    3.79982   14.71475
      H1    15.83371    3.47273   15.16498
       H    13.48819   -1.21643   11.82892
       O    12.80064   -0.69110   12.27577
      H1    11.95142   -0.74683   11.78959
       H    14.86621    1.21837   13.27055
       O    14.16517    1.31335   13.94892
      H1    13.45135    0.81631   13.55308
       H    12.82412   -4.00741   18.36611
       O    13.40255   -4.66154   17.87110
      H1    14.27280   -4.33745   18.12051
       H    16.47842   -4.21568   18.77311
       O    15.76531   -3.62097   18.50410
      H1    15.91515   -2.83629   19.01517
       H    10.16859    0.18345   12.64210
       O    10.36467    0.14414   11.69476
      H1     9.62006   -0.19813   11.21611
       H    18.85013   -3.65488   15.02631
       O    18.00725   -4.08956   14.89718
      H1    17.33281   -3.48346   14.59807
       H    15.49812    2.38222   19.89683
       O    16.06443    2.48435   19.14487
      H1    15.54757    2.57646   18.31108
       H    18.27671   -0.04490   19.70977
       O    17.85754   -0.86092   19.34700
      H1    17.59738   -0.70652   18.43216
       H    10.51523   -0.92092   16.91505
       O    11.32949   -1.44414   16.99400
      H1    11.63953   -1.62173   16.11689
       H    16.07223    2.42828   11.34739
       O    16.39468    2.45225   12.29973
      H1    17.17888    1.92964   12.35468
       H    17.72781    1.55890   18.74753
       O    18.46330    1.51900   18.13948
      H1    19.03238    2.28401   18.38655
       H    12.77875    0.84770   18.14662
       O    12.70701    1.13076   19.07493
      H1    13.06377    0.34079   19.47196
       H    12.50603   -3.28701   15.15568
       O    13.16719   -4.04073   15.36024
      H1    13.15447   -4.14747   16.33336
       H     8.81645    0.11545   18.42350
       O     8.85823   -0.33775   17.60158
      H1     8.70679    0.38414   16.93627
       H    14.29809    2.16702   16.69199
       O    14.98817    2.80191   16.76119
      H1    14.49294    3.61530   16.95781
       H    12.68576   -0.17183   16.37419
       O    13.50976    0.42393   16.37531
      H1    13.78971    0.73596   15.46628
       H    14.46328   -3.90778   14.35942
       O    15.11762   -3.71545   13.63357
      H1    15.50023   -2.84327   13.71682
       H     8.94079    0.14477   14.34953
       O     9.88440    0.30959   14.52431
      H1     9.83215    1.19037   14.90968
       H    10.87971   -1.45468   14.40184
       O    11.48563   -2.16941   14.24197
      H1    11.91054   -1.83709   13.41636

