96
frame 10 | Written by MDAnalysis XYZWriter (release 2.4.3)
       H     9.25479   13.31579  -11.27726
       O     8.74647   13.55278  -12.03850
      H1     8.93036   12.98653  -12.81011
       H     3.32927   14.80008   -5.25236
       O     4.14767   15.20777   -4.92386
      H1     4.60290   15.56618   -5.69265
       H     5.42597   16.23432  -11.13703
       O     4.67601   16.55888  -11.70778
      H1     5.03665   17.19374  -12.31197
       H     9.26541   12.97452   -7.35559
       O    10.17175   13.33690   -7.29149
      H1    10.05692   14.20584   -6.93949
       H     7.92940   13.81015   -5.11666
       O     8.60594   13.99085   -4.40689
      H1     8.23077   14.67305   -3.83847
       H    11.40349   12.32773   -3.30083
       O    10.45612   11.94721   -3.40574
      H1     9.90323   12.74129   -3.41573
       H    10.40120   13.10446   -9.22638
       O    10.51127   12.89300  -10.14699
      H1     9.98094   12.13512  -10.30802
       H     3.39724    9.95463  -10.16283
       O     4.16347    9.67884  -10.68635
      H1     4.93922   10.21485  -10.35170
       H     6.27449   19.63081   -4.62165
       O     6.07825   18.71988   -4.29821
      H1     5.88146   18.86626   -3.34161
       H     7.77417   15.42175   -9.81806
       O     7.06384   15.25556  -10.45450
      H1     7.49522   14.66409  -11.05522
       H     5.73244   13.53883  -12.88047
       O     5.34936   13.04847  -12.11386
      H1     4.43341   13.30062  -12.18029
       H     0.67448   14.35217   -6.05636
       O     0.24822   14.84033   -6.77066
      H1     0.40414   14.40015   -7.58017
       H     1.93501   10.66887   -5.32471
       O     1.82915   11.18530   -6.13468
      H1     0.88739   11.34370   -5.96315
       H     4.35090   16.55772   -7.77938
       O     5.06772   16.07131   -7.44109
      H1     5.67957   16.82952   -7.10133
       H     6.48254   19.65010   -9.70614
       O     7.38067   19.50308   -9.33287
      H1     7.92521   19.11309  -10.06224
       H    11.02884   15.89098   -9.61166
       O    10.07295   16.19858   -9.61601
      H1     9.86614   16.57109   -8.74897
       H     5.00679   11.04529   -2.94728
       O     4.92121   10.90053   -3.87355
      H1     4.07783   10.43447   -4.06582
       H     6.31017   14.48085   -7.02941
       O     6.48283   13.87081   -6.25154
      H1     5.66630   13.84164   -5.79370
       H     7.85395   17.16029   -2.45003
       O     7.88807   16.63357   -3.19205
      H1     7.42580   17.14209   -3.86078
       H     6.49494    9.45694   -6.16164
       O     7.11263    9.92566   -5.57632
      H1     6.55504   10.34831   -4.94455
       H     6.87580   11.11402   -9.14335
       O     6.45498   11.07299  -10.01835
      H1     6.56002   11.93877  -10.35529
       H     3.26564   17.27227   -4.96644
       O     3.30567   18.14049   -4.60644
      H1     4.17937   18.55670   -4.61758
       H     0.65055   13.23402   -9.73701
       O     1.30117   13.56556   -9.08890
      H1     1.98156   13.87339   -9.76508
       H     2.00516   17.84357   -7.50763
       O     2.65749   17.86466   -8.22322
      H1     3.12443   18.60797   -7.94335
       H    10.40714   14.94267   -5.04763
       O    11.26839   15.40528   -5.16435
      H1    11.02264   16.30725   -4.77878
       H     5.49004    9.10263   -8.63852
       O     6.01848    8.61660   -7.95011
      H1     5.43511    7.92533   -7.70401
       H     3.25492   15.17534   -1.80544
       O     4.14283   14.84237   -2.09567
      H1     4.08863   14.87449   -3.05066
       H     7.05964   18.70026   -7.62942
       O     7.05270   18.22242   -6.80278
      H1     6.79218   18.75447   -6.02893
       H     1.30946   13.63248   -3.85563
       O     1.71812   13.65079   -4.71126
      H1     2.32950   12.89204   -4.70775
       H    10.20586   17.75513   -6.43271
       O     9.70339   17.65823   -7.24508
      H1     8.76166   17.77309   -6.93412
       H     7.45989   12.49628   -6.85271
       O     7.93199   11.95055   -7.46876
      H1     8.21825   11.16997   -6.99945
       H     2.10901   10.81568   -7.94219
       O     2.27493   10.82703   -8.88923
      H1     2.07634   11.73878   -9.06177

