96
frame 10 | Written by MDAnalysis XYZWriter (release 2.4.3)
       H    -7.35385    9.65806  -18.52388
       O    -8.25977    9.99801  -18.56855
      H1    -7.96884   10.88523  -18.62784
       H   -10.29443    8.55544  -10.95782
       O    -9.65235    8.28093  -11.63468
      H1    -9.95690    7.38547  -11.86865
       H    -8.37331   11.96051  -12.66979
       O    -8.61633   12.82820  -12.97498
      H1    -9.08865   13.18314  -12.24232
       H    -8.91281    7.90898  -16.04982
       O    -8.36617    8.69414  -15.82953
      H1    -8.31323    9.22395  -16.65602
       H   -13.92275   12.03509  -12.27202
       O   -14.22318   11.25393  -11.66297
      H1   -15.20701   11.36014  -11.63435
       H    -5.98146   13.47575  -16.19638
       O    -6.34806   12.64647  -16.50855
      H1    -6.04488   11.89072  -15.98149
       H   -10.71539    7.10578  -17.58063
       O   -10.30323    7.67940  -18.24620
      H1   -10.67348    8.53262  -18.05845
       H   -14.04100    8.23018  -11.49139
       O   -13.62178    8.75859  -12.17851
      H1   -13.77490    9.70612  -12.07450
       H   -12.21386    8.83741   -9.32029
       O   -11.91943    8.69926  -10.20536
      H1   -12.65519    8.90445  -10.77173
       H   -11.09358   15.64484  -13.58653
       O   -11.25862   14.67011  -13.34130
      H1   -10.81622   14.11491  -13.99566
       H   -13.76160   11.77934  -19.60125
       O   -14.27671   11.51104  -18.82087
      H1   -14.28602   10.55143  -18.91800
       H   -12.90784   13.85585  -13.65760
       O   -13.62578   13.26369  -13.47863
      H1   -14.40714   13.70525  -13.81965
       H    -7.03546   10.11165  -11.28296
       O    -7.58891   10.37519  -11.98901
      H1    -8.35954    9.78191  -11.87593
       H   -10.48032    9.60835  -13.72145
       O   -10.38022   10.04053  -14.59177
      H1    -9.62141    9.66177  -14.98781
       H    -7.43065   16.96855  -14.39463
       O    -8.11038   16.31325  -14.15645
      H1    -8.21806   15.76583  -14.94380
       H   -14.83406   15.71759  -10.39428
       O   -14.95339   15.36279  -11.34434
      H1   -14.12351   14.98656  -11.70133
       H   -11.52989   16.51507  -17.49195
       O   -11.11379   15.84572  -16.90353
      H1   -11.56946   14.99423  -17.00518
       H   -13.55721   13.67931  -17.04088
       O   -14.39922   14.24053  -16.95383
      H1   -14.82756   14.19093  -17.78983
       H    -8.45865   14.46000  -16.97445
       O    -8.47351   14.21627  -16.06774
      H1    -7.67145   13.67920  -16.04621
       H   -11.65164   12.64759  -16.62210
       O   -12.19153   12.98232  -17.42256
      H1   -12.82749   12.23098  -17.58563
       H    -8.15696   13.10555  -18.56518
       O    -7.37373   12.60887  -18.82857
      H1    -6.75913   12.54513  -17.99059
       H   -10.02520   15.74762  -18.01292
       O    -9.18057   15.90085  -18.52348
      H1    -9.51192   16.59505  -19.07982
       H   -16.17941   12.07424  -15.45108
       O   -15.85524   11.14339  -15.40811
      H1   -15.24979   11.06812  -14.65023
       H    -7.16198   13.98778  -13.23221
       O    -6.19433   14.21332  -13.33826
      H1    -6.21598   15.20161  -13.35019
       H    -6.92603    9.22606  -13.19415
       O    -6.44530    8.71988  -13.80734
      H1    -7.17741    8.54570  -14.43259
       H   -10.97173   16.52478  -15.26025
       O   -11.09564   17.07171  -14.42886
      H1   -12.02798   17.37399  -14.33391
       H   -12.66158    8.95032  -16.78411
       O   -11.90295    9.48256  -16.95566
      H1   -11.47038    9.51574  -16.07043
       H   -11.78062   14.79515  -11.41860
       O   -12.11880   14.89156  -10.52983
      H1   -11.96182   15.80623  -10.40639
       H   -13.80482    8.09962  -14.00100
       O   -13.91767    7.72221  -14.91719
      H1   -14.90250    7.70552  -14.99879
       H    -9.59230   12.77090  -15.33760
       O   -10.59934   12.61473  -15.24444
      H1   -10.70078   11.75917  -14.73599
       H   -10.83967   12.45769  -18.56622
       O   -10.51968   12.09548  -19.40450
      H1   -10.59441   11.14536  -19.23948
       H   -10.39047   13.96119   -9.98533
       O    -9.68178   13.36792  -10.31924
      H1    -8.88532   13.87210  -10.00432

