96
frame 10 | Written by MDAnalysis XYZWriter (release 2.4.3)
       H    18.20411   18.65221  -17.08773
       O    18.95890   18.20905  -17.43446
      H1    19.00969   18.44551  -18.35995
       H    12.98723   12.95055  -16.90356
       O    13.80620   13.41335  -16.93897
      H1    14.34202   13.07606  -16.19876
       H    16.95728   15.09942  -16.85497
       O    17.15706   15.05201  -15.88507
      H1    16.68538   14.24933  -15.64452
       H    14.85863   19.19445  -19.14981
       O    15.46634   18.64418  -18.58465
      H1    16.26439   19.07050  -18.93625
       H    19.60737   16.70965  -11.24786
       O    19.10769   17.13382  -10.52642
      H1    19.87784   17.14082   -9.90613
       H    13.34919   11.69299  -10.95822
       O    14.11381   12.04445  -11.44965
      H1    13.83542   12.92792  -11.65164
       H    15.66660   11.74521  -12.07246
       O    16.46256   11.44597  -12.56684
      H1    17.20285   11.61586  -11.97668
       H    16.35435   16.69320   -8.90709
       O    16.95821   16.10641   -8.41023
      H1    17.54718   15.68514   -9.08059
       H    16.61958   16.20303  -14.27109
       O    16.35635   16.96548  -13.80126
      H1    15.39281   17.22489  -13.90175
       H    12.69381   18.87125  -12.70256
       O    12.41292   18.22184  -12.06103
      H1    12.11639   17.55782  -12.68514
       H    12.17172   17.05394  -19.63475
       O    11.71247   16.86616  -18.78869
      H1    10.90818   16.36560  -19.06075
       H    18.66518   14.75229  -14.89716
       O    19.44831   14.30922  -14.49801
      H1    19.06010   13.48788  -14.21384
       H     8.77370   16.89556  -11.92321
       O     8.80386   16.34449  -12.72474
      H1     8.74268   15.48360  -12.37644
       H    12.68046   18.03565   -8.81824
       O    12.56087   18.74222   -9.43566
      H1    12.31839   18.39748  -10.28869
       H     9.85551   17.74453  -10.62758
       O     9.25373   18.41949  -10.95368
      H1     9.71532   19.16867  -11.33556
       H    17.36294   17.11039  -10.80421
       O    16.38094   17.08743  -10.91137
      H1    16.20336   16.84809  -11.78909
       H    13.92886   18.93233  -17.06549
       O    13.38713   19.70486  -16.81342
      H1    12.43876   19.49839  -16.83767
       H    16.08570   12.14944  -15.50869
       O    15.74398   12.78010  -14.88702
      H1    15.89292   12.33068  -14.04877
       H    10.13152   16.80508  -16.53704
       O     9.41560   16.24285  -16.79383
      H1     8.63673   16.63442  -16.40038
       H    11.02884   15.89098   -9.61166
       O    10.07295   16.19858   -9.61601
      H1     9.86614   16.57109   -8.74897
       H    12.76197   15.12390  -16.40962
       O    12.46281   15.99950  -16.27967
      H1    12.35507   16.31762  -17.18662
       H    11.25547   16.11922  -14.66929
       O    11.20029   16.47353  -13.82327
      H1    10.26885   16.40225  -13.54951
       H    17.14237   18.70117  -14.55406
       O    17.29095   19.46108  -15.20245
      H1    18.23414   19.60851  -15.11071
       H    11.96021   11.78209  -13.20578
       O    11.25079   12.39812  -13.04358
      H1    11.11347   12.36516  -12.09825
       H    14.08551   18.88131   -9.21581
       O    15.07915   18.78451   -9.11850
      H1    15.39933   18.36229   -9.95671
       H    18.89490   13.52210  -10.50058
       O    18.91778   14.29018   -9.85932
      H1    19.51559   14.92499  -10.28452
       H    10.22058   19.31859  -15.44390
       O    11.05095   19.34612  -14.97357
      H1    11.14095   18.47024  -14.54411
       H    15.31214   13.98601   -6.54201
       O    14.87184   14.31091   -7.33883
      H1    15.51570   14.96469   -7.62371
       H    11.80428   14.24896  -10.69162
       O    12.27694   15.06603  -10.85971
      H1    11.83655   15.45146  -11.60029
       H    13.68209   18.72549  -15.01220
       O    13.84698   18.00768  -14.44594
      H1    13.65207   17.21204  -14.99565
       H    16.89268   15.23456  -19.34481
       O    17.34631   14.60732  -18.75499
      H1    18.31066   14.79634  -18.66921
       H    13.38649   15.68547   -7.72414
       O    12.87514   16.50829   -7.66020
      H1    12.10533   16.26911   -7.11295

