96
frame 10 | Written by MDAnalysis XYZWriter (release 2.4.3)
       H   -17.07960    1.11551    5.61092
       O   -16.70564    0.48338    5.01291
      H1   -16.92298    0.71932    4.09857
       H   -16.80313    2.75467    7.02778
       O   -17.45951    2.06928    7.21621
      H1   -18.15602    2.57216    7.64861
       H   -13.55253    2.32042   10.34094
       O   -12.65189    2.35076   10.00378
      H1   -12.44483    1.57249    9.49425
       H   -17.79807    0.05727    1.04908
       O   -17.63973    0.28668    1.95087
      H1   -18.05828    1.16730    2.01507
       H   -11.63788   -4.85252    3.40072
       O   -11.93587   -4.66158    4.29633
      H1   -11.63986   -5.42818    4.78552
       H   -10.64763    0.59738    2.93122
       O   -10.55564    1.33327    2.29725
      H1   -10.74532    0.86110    1.47088
       H   -13.61356   -1.68090    1.85143
       O   -13.51175   -2.61439    1.75788
      H1   -13.82625   -2.89107    2.58899
       H   -16.28661   -3.90975   11.06478
       O   -16.22428   -4.17471   10.10947
      H1   -15.29350   -4.13016    9.94983
       H   -11.46218   -1.15688    4.17936
       O   -10.64751   -0.84627    3.76214
      H1   -10.17457   -0.48505    4.54925
       H   -16.98963    1.30051    8.57615
       O   -16.74073    1.26817    9.56311
      H1   -15.91246    0.72599    9.53630
       H   -14.42573   -1.87108    5.25305
       O   -14.15862   -0.93542    5.35830
      H1   -15.01368   -0.47744    5.14363
       H   -10.66149   -3.04698    6.75802
       O   -11.55693   -2.78215    6.46907
      H1   -11.73453   -3.31561    5.68779
       H   -13.15340   -2.34427   11.88120
       O   -13.15466   -2.31006   10.90864
      H1   -13.84933   -1.74488   10.58343
       H   -15.45963   -4.09098    2.82732
       O   -16.22199   -4.32705    2.29225
      H1   -15.85424   -4.95192    1.67031
       H   -13.58845   -4.39729    4.43749
       O   -14.37177   -3.84728    4.28547
      H1   -15.06810   -3.99915    4.99026
       H    -9.76737    1.07720    6.30522
       O    -9.86713    0.09640    6.29603
      H1   -10.59634   -0.16059    6.91566
       H   -12.08216   -0.46631    8.11585
       O   -12.66947    0.17396    7.77721
      H1   -12.98452   -0.27570    6.98215
       H   -15.17941   -7.38461    6.65912
       O   -14.35005   -7.69528    7.12076
      H1   -14.48252   -7.49938    8.05763
       H   -14.07590   -0.15235    8.81566
       O   -14.74719   -0.34027    9.49997
      H1   -15.42930   -0.85324    9.08399
       H   -11.09606   -7.25244    6.06638
       O   -11.79556   -6.58513    6.34400
      H1   -12.69366   -6.98702    6.42134
       H   -10.59864   -3.62922    1.23800
       O   -10.73313   -2.68589    1.11200
      H1   -11.39408   -2.48650    1.79954
       H   -18.60542   -5.33390    4.53612
       O   -18.24889   -4.54549    4.16245
      H1   -17.67557   -4.70576    3.40139
       H   -17.88354   -1.28050    4.98896
       O   -18.67634   -1.78765    4.76359
      H1   -18.36551   -2.62319    4.36894
       H   -12.55836    0.01489   -0.28676
       O   -12.85446    0.77705    0.19807
      H1   -12.45807    1.51268   -0.28055
       H   -11.39974   -5.53616    7.75217
       O   -11.24821   -5.25988    8.71940
      H1   -12.06531   -4.72357    8.83252
       H   -11.66220   -1.38257   10.43245
       O   -10.87695   -1.44329    9.87794
      H1   -10.48484   -0.53538    9.79146
       H   -14.40594    1.07466    1.41551
       O   -15.08250    1.62025    1.85393
      H1   -15.91649    1.15262    1.73281
       H   -16.49223   -5.95342    5.77671
       O   -16.57432   -6.85184    5.57079
      H1   -16.36847   -7.02588    4.63993
       H   -16.77740   -3.16894    6.66268
       O   -16.44398   -3.88706    6.09330
      H1   -17.09447   -4.16167    5.47256
       H   -17.95572   -1.83075    8.40048
       O   -16.98832   -2.02893    8.38966
      H1   -16.95110   -2.71272    9.07832
       H   -15.59155   -4.05410   -0.10656
       O   -14.73025   -3.72737   -0.31478
      H1   -14.47015   -3.13016    0.43740
       H   -13.53542   -3.18707    9.17435
       O   -13.66052   -3.94084    8.56090
      H1   -13.03882   -3.65109    7.83532

