99
frame 0 | Written by MDAnalysis XYZWriter (release 2.4.3)
       H   -17.93243   12.12527  -11.61791
       O   -18.47428   11.36282  -11.49713
      H1   -18.52994   11.19669  -10.55221
       H   -13.12725    7.40301   -7.32219
       O   -12.58823    8.09376   -6.78187
      H1   -13.18454    8.06307   -6.01802
       H   -19.36193    1.53295  -10.41936
       O   -18.87446    2.15957   -9.92185
      H1   -19.53728    2.62186   -9.34045
       H   -17.66813    9.20392   -5.94227
       O   -17.73197    9.76093   -5.15099
      H1   -17.64575    9.19060   -4.37402
       H   -10.94964    5.69329   -6.77226
       O   -10.81658    5.65645   -7.69587
      H1   -10.72481    4.69988   -7.82960
       H   -11.82773    4.71052   -4.70107
       O   -11.02806    5.05277   -5.17922
      H1   -10.83154    5.89777   -4.77427
       H   -13.58253    7.14446   -3.80717
       O   -14.11174    7.67094   -4.39775
      H1   -13.99967    8.52818   -4.03448
       H   -17.21363    5.17728  -10.78284
       O   -17.94867    4.54591  -10.94269
      H1   -17.80878    3.73947  -10.37482
       H   -13.72085   10.28580  -11.92089
       O   -13.25984    9.56628  -12.37183
      H1   -12.38727    9.52907  -11.98089
       H   -13.30051   10.93403   -8.68813
       O   -12.54507   10.60579   -9.15453
      H1   -12.59337   11.08193   -9.97098
       H   -13.96882    3.67422  -10.86628
       O   -13.12576    3.88260  -10.49008
      H1   -13.08896    4.84639  -10.31049
       H   -16.11639    5.22729   -3.76219
       O   -16.54589    5.81718   -4.41709
      H1   -15.89098    6.53780   -4.61637
       H   -17.21920    7.08654   -3.22118
       O   -17.58678    7.93521   -2.90784
      H1   -17.04280    8.22114   -2.13563
       H   -14.33179    8.78607  -10.44208
       O   -15.12824    8.28523  -10.32167
      H1   -15.00677    7.48541  -10.87182
       H   -14.23365    5.20698   -7.51087
       O   -14.07046    4.28194   -7.49864
      H1   -14.47774    3.95095   -8.32318
       H   -15.61876   12.42616   -4.84416
       O   -15.41824   11.44780   -4.81667
      H1   -16.29395   11.04679   -4.93870
       H   -16.82135    2.84123   -5.76200
       O   -16.05517    2.30187   -5.56050
      H1   -15.31465    2.87410   -5.86811
       H   -12.22194    6.62188  -10.51325
       O   -12.69455    6.37149   -9.66533
      H1   -11.99530    6.20297   -9.02749
       H   -18.06651    7.69342   -7.89161
       O   -17.43573    8.32540   -7.46188
      H1   -17.05327    8.78562   -8.22004
       H   -19.14085    7.52474  -13.37926
       O   -18.69029    7.00100  -12.68728
      H1   -19.24280    7.04206  -11.91464
       H   -15.78679    2.16440   -9.96857
       O   -15.50715    1.82930   -9.10613
      H1   -16.27771    1.59423   -8.53681
       H   -15.54071    5.81405  -12.68871
       O   -15.99698    6.43122  -12.14209
      H1   -16.84197    6.57342  -12.54395
       H   -18.93856    3.43154   -3.97493
       O   -18.95050    3.02651   -3.07089
      H1   -18.01969    2.66466   -2.96149
       H   -11.06916    9.71841   -8.48636
       O   -10.19946    9.34636   -8.43835
      H1   -10.28903    8.62031   -7.82245
       H   -12.82996    3.07234   -5.77784
       O   -13.10745    3.24203   -4.85949
      H1   -13.74508    3.92480   -4.94992
       H   -14.38237    9.51296   -7.27282
       O   -14.81737   10.28559   -7.56349
      H1   -14.86248   10.79698   -6.70022
       H   -18.25333    4.77027   -5.37700
       O   -18.50256    3.89983   -5.67206
      H1   -19.30638    3.88355   -6.18148
       H   -15.83845    8.31021  -13.16341
       O   -16.19279    8.86429  -13.87315
      H1   -16.24488    9.82067  -13.66379
       H   -19.71299    6.58603   -8.84800
       O   -19.22767    6.43079   -8.00482
      H1   -19.36129    5.45710   -7.98138
       H   -10.74699   10.94937   -6.21212
       O   -11.58225   10.91034   -5.71244
      H1   -11.70150    9.97556   -6.00017
       H   -14.74792    7.13436   -8.74676
       O   -14.86295    6.82728   -7.81842
      H1   -15.80490    6.98385   -7.61077
       H   -15.55364   10.21566  -10.95482
       O   -15.32309   11.15778  -10.97536
      H1   -16.03897   11.64377  -11.36955
       H   -16.04850   13.46811   -7.86251
       O   -16.44963   12.77486   -8.43098
      H1   -15.70759   12.07808   -8.50625

