99
frame 1 | Written by MDAnalysis XYZWriter (release 2.4.3)
       H   -18.05040    0.20878   10.47884
       O   -18.70549   -0.14252   11.11262
      H1   -18.79780    0.54676   11.81666
       H   -16.76018    5.00221    6.97924
       O   -16.08612    4.41063    7.35201
      H1   -15.84444    4.76226    8.22992
       H   -13.05900    3.34436   13.15331
       O   -13.23164    2.47163   13.57922
      H1   -12.49759    2.10996   13.99620
       H   -16.76404   -5.93955   13.11923
       O   -16.14173   -5.20353   13.19357
      H1   -16.15909   -4.74328   14.04035
       H   -17.12600    3.03587    7.27095
       O   -17.74748    2.29579    7.14286
      H1   -18.54852    2.60667    7.60176
       H   -14.32889   -0.42503   15.02125
       O   -13.36338   -0.50372   15.03332
      H1   -13.26977   -1.06872   14.24577
       H   -15.72236    6.23940   10.32492
       O   -15.05380    5.62470    9.86524
      H1   -14.70038    5.09189   10.57397
       H   -14.00333    5.36199   14.00391
       O   -13.47223    5.15469   13.21927
      H1   -12.54624    5.37415   13.55785
       H   -18.81385    4.68618   15.20259
       O   -18.05606    4.79784   14.59653
      H1   -17.46597    4.03318   14.88852
       H   -16.39049   -3.35172   12.40048
       O   -16.61816   -2.51745   11.98876
      H1   -17.53839   -2.42597   11.89046
       H   -15.45859    2.72492   15.68415
       O   -14.91054    3.48237   15.50130
      H1   -14.26969    3.14700   14.77429
       H   -19.10259    2.38771   13.02406
       O   -19.05778    2.38403   12.08229
      H1   -18.23856    2.76698   11.83050
       H   -13.49485   -4.31551    9.83380
       O   -13.29818   -5.23692    9.87462
      H1   -13.42013   -5.50149    8.98676
       H   -14.72192    1.77415   13.00527
       O   -15.59600    1.24348   12.81465
      H1   -15.42164    0.66935   12.05759
       H   -17.21386    1.06301    8.57448
       O   -16.84889    0.43640    9.23316
      H1   -16.68793   -0.41278    8.84323
       H   -15.26066    1.03967    9.13109
       O   -14.34810    1.31803    8.85096
      H1   -13.85279    0.50360    8.68421
       H   -15.79496    0.10948   14.20246
       O   -16.03241   -0.27462   15.02592
      H1   -16.20916   -1.21052   14.79911
       H   -17.13302   -1.51828    7.20766
       O   -16.70217   -1.87307    8.02079
      H1   -15.81173   -2.00589    7.69862
       H   -11.58105   -1.32769    8.41371
       O   -12.08742   -0.49445    8.22650
      H1   -11.43307    0.19234    8.19369
       H   -13.64633   -2.77041   11.54876
       O   -14.08695   -2.91271   10.67160
      H1   -15.03751   -2.70203   10.90312
       H   -12.14398    3.76224    9.94213
       O   -12.91128    3.55560   10.53634
      H1   -13.46364    2.95627    9.98796
       H   -12.79723   -3.19355   13.54791
       O   -12.80438   -2.33477   13.13694
      H1   -11.94021   -2.23607   12.65927
       H   -12.21358   -1.31664   16.21582
       O   -11.65669   -1.83510   16.76252
      H1   -11.06185   -2.25803   16.14111
       H   -13.50943    2.35796    7.32090
       O   -12.89403    2.84988    6.74171
      H1   -13.38127    3.20778    5.96698
       H   -16.20200   -2.75555   16.10411
       O   -16.48384   -3.00575   15.22225
      H1   -17.41710   -3.09739   15.32597
       H   -17.55768   -4.34703    9.75924
       O   -16.88825   -4.25241    9.04812
      H1   -16.97736   -3.30782    8.66825
       H   -19.59126   -2.25724   11.17752
       O   -19.53349   -2.91861   11.85268
      H1   -19.62421   -2.42686   12.68325
       H   -10.08139   -2.23787   11.49283
       O   -10.80559   -1.71283   11.27453
      H1   -10.47278   -0.83209   11.42822
       H   -11.27232    0.65055   10.95296
       O   -10.44167    0.90936   11.41427
      H1   -10.82486    0.93957   12.30206
       H   -15.61845    6.58055   15.54910
       O   -14.78679    6.05568   15.47147
      H1   -15.03078    5.17872   15.73034
       H   -17.78460    1.94299   16.81544
       O   -17.51891    1.88474   15.88469
      H1   -16.96331    1.15184   15.75758
       H   -14.24573   -1.54989    5.92391
       O   -14.23345   -2.00632    6.81084
      H1   -13.38267   -1.90768    7.24840
       H   -11.63707    2.02446   15.84361
       O   -11.38247    1.44016   15.15113
      H1   -11.94700    0.64281   15.04995

