99
frame 2 | Written by MDAnalysis XYZWriter (release 2.4.3)
       H    -4.77562    4.68867    9.49634
       O    -4.76922    4.82710   10.49559
      H1    -4.62953    3.93180   10.81390
       H    -6.78482   -0.04501   12.86042
       O    -5.99284    0.15509   12.24553
      H1    -5.38807   -0.58095   12.37756
       H   -10.19920    5.48085   13.39178
       O   -11.00834    5.64221   13.90635
      H1   -11.43208    6.46094   13.54652
       H   -13.79233    3.51672   12.64410
       O   -13.98660    2.51953   12.71267
      H1   -13.44532    2.28728   13.45389
       H    -7.65213    3.22041    7.49021
       O    -7.21155    3.93024    7.02332
      H1    -7.12793    3.61988    6.14429
       H   -11.75995    3.90108    6.53819
       O   -11.14932    4.58298    6.79525
      H1   -11.21190    4.59523    7.79070
       H    -7.50693   -3.55264   13.13536
       O    -6.63573   -3.55023   13.71364
      H1    -6.19147   -4.37152   13.41542
       H    -8.25524    1.63787   11.28643
       O    -8.79257    1.84639   12.09829
      H1    -9.67480    1.60816   11.84521
       H    -7.72379    2.46358   14.15405
       O    -6.82445    2.61016   14.41807
      H1    -6.49851    3.48961   14.12237
       H    -7.27622    7.46014   11.55522
       O    -6.96221    6.92084   10.85077
      H1    -6.72918    7.60722   10.16103
       H    -7.86774    4.79157   12.79661
       O    -8.79932    4.55417   12.58156
      H1    -8.82896    3.62977   12.47894
       H    -4.57911    0.57739    7.02171
       O    -4.67122   -0.36811    7.19317
      H1    -5.58416   -0.46363    6.94089
       H    -7.99248    3.02567    9.45664
       O    -7.86518    2.07743    9.20305
      H1    -6.95424    1.87404    9.16442
       H   -10.78541    1.33688    6.35269
       O   -10.78963    1.39899    7.32193
      H1   -10.01591    1.96146    7.61603
       H    -5.31135    4.27830    7.24439
       O    -4.54560    4.27323    7.81209
      H1    -3.75052    4.21098    7.33267
       H   -10.89802    2.96269    9.37171
       O   -11.57439    3.64464    9.47307
      H1   -12.35050    3.05274    9.23812
       H    -3.78407   -2.19761   13.05471
       O    -4.59547   -1.85782   13.38157
      H1    -5.27434   -2.57479   13.31779
       H    -8.12648   -3.51966    9.30116
       O    -8.03417   -4.49366    9.19826
      H1    -7.08431   -4.63263    9.05464
       H    -5.24278    2.03015   15.19022
       O    -4.30989    1.89532   15.48217
      H1    -4.06269    2.57630   16.09144
       H    -6.08016    6.02642   13.77981
       O    -6.18155    5.17505   13.35676
      H1    -5.81570    5.37554   12.47626
       H    -8.72564    4.61405   10.74278
       O    -8.52884    4.62710    9.77436
      H1    -7.73855    5.19901    9.80768
       H    -7.27379   -0.66203   14.34122
       O    -7.94114   -0.82489   13.69018
      H1    -8.67903   -0.28411   14.13005
       H    -7.26283    0.74574    7.45643
       O    -7.52362   -0.06210    6.96399
      H1    -8.48794   -0.23062    6.99093
       H   -10.50101    0.79970   15.16403
       O    -9.57288    0.62295   15.14266
      H1    -9.37145    0.24113   16.00532
       H    -5.19099   -1.05620   14.93598
       O    -5.72992   -0.54754   15.58458
      H1    -5.38470    0.37941   15.52256
       H    -9.90571   -2.61297   11.48026
       O   -10.54367   -1.94818   11.04059
      H1   -10.02044   -1.17415   11.14815
       H   -12.16096    1.41296   11.41671
       O   -11.41644    0.91179   11.78162
      H1   -11.47814    1.14615   12.69863
       H    -7.46863   -0.87713    9.48402
       O    -7.30555   -1.49536   10.16641
      H1    -6.61232   -1.08107   10.63572
       H    -6.70966    3.40633   17.27513
       O    -6.37108    4.18394   16.75610
      H1    -6.80926    4.14480   15.89228
       H    -3.42871    2.27275   12.48360
       O    -4.31966    2.42649   11.96105
      H1    -4.91148    1.66746   12.21052
       H    -4.81417    0.63203    8.79946
       O    -5.19335    1.41133    9.25257
      H1    -4.81533    1.57103   10.18873
       H   -12.22091    2.43446   15.20170
       O   -12.06378    1.75320   14.56839
      H1   -12.50933    0.97209   14.91853
       H   -11.43987   -2.14842    9.29244
       O   -11.58436   -2.27984    8.35154
      H1   -10.80593   -1.83674    7.94220

