99
frame 1 | Written by MDAnalysis XYZWriter (release 2.4.3)
       H     7.08107   -8.03989  -14.72751
       O     6.47876   -8.68798  -14.26380
      H1     7.06874   -9.32767  -13.78105
       H     3.15891   -5.75595   -5.84219
       O     3.41652   -4.87208   -6.23750
      H1     3.61906   -5.16733   -7.11853
       H     0.63256  -11.98115   -6.31925
       O    -0.22835  -12.33995   -6.50846
      H1    -0.66289  -12.74792   -5.70409
       H     6.24088   -9.47319  -10.82817
       O     5.81001   -9.07961  -10.01153
      H1     4.96066   -8.65603  -10.22776
       H     0.39261  -10.54931  -11.54336
       O     1.26277  -10.16127  -11.80497
      H1     1.70632  -10.81535  -12.30791
       H     1.63537   -6.51643  -12.62825
       O     1.31823   -5.58467  -12.83881
      H1     0.68698   -5.67087  -13.60381
       H     3.09867  -11.01918   -5.92127
       O     2.15173  -10.90175   -5.84300
      H1     1.92146  -11.06978   -4.89721
       H    -0.65951   -6.93984  -11.72359
       O    -1.28615   -7.63338  -11.83153
      H1    -2.12837   -7.16370  -11.51807
       H     3.60882   -9.52453   -9.21674
       O     3.36849   -8.56911   -9.12364
      H1     2.95408   -8.32371   -9.98059
       H     2.19980   -8.40438  -12.02948
       O     2.43136   -7.58310  -11.63067
      H1     3.37562   -7.42562  -11.65148
       H     5.43514   -5.31155  -10.86342
       O     4.64563   -5.70671  -11.28865
      H1     3.84523   -5.21855  -10.99946
       H     7.04577  -12.36790  -11.02810
       O     7.60045  -12.36981  -10.24752
      H1     7.33095  -11.64637   -9.72229
       H     7.44857   -5.54500   -7.62995
       O     7.60712   -4.62297   -7.76463
      H1     7.02215   -4.22990   -7.10556
       H     7.26526  -13.79276   -9.34377
       O     7.10793  -14.65955   -8.93320
      H1     7.71963  -15.31999   -9.28775
       H     5.35598  -10.53540   -6.04118
       O     4.70983  -11.02517   -6.62718
      H1     4.91334  -11.93747   -6.44236
       H     3.91559  -11.61500   -8.37625
       O     3.34192  -11.35502   -9.09190
      H1     2.41896  -11.13037   -8.70431
       H     3.57737   -7.97795   -5.04806
       O     2.80707   -7.41492   -4.85292
      H1     2.05905   -7.69615   -5.46247
       H     8.70062  -11.05366   -7.41684
       O     9.44571  -11.36571   -6.98769
      H1     9.89994  -12.02328   -7.53828
       H     2.12431   -8.29318   -7.64664
       O     1.53612   -8.37955   -6.88525
      H1     1.63350   -9.30354   -6.53575
       H    -1.99072  -10.49285  -10.91346
       O    -1.14883  -10.51180  -10.39259
      H1    -1.01562  -11.39966  -10.05295
       H     7.65494   -8.04068   -7.65408
       O     6.86652   -7.51551   -7.71043
      H1     6.37148   -7.98531   -8.36822
       H     2.42215  -13.55804  -11.16895
       O     2.53571  -13.55622  -10.22743
      H1     2.87853  -12.68182  -10.06571
       H    -1.14555   -9.94452   -8.25689
       O    -1.46728  -10.00309   -7.34049
      H1    -1.10081  -10.80554   -7.02232
       H     5.31215  -10.21991  -14.28495
       O     4.71996  -10.99607  -14.58576
      H1     4.27861  -11.35258  -13.82282
       H     6.06020  -10.99996   -7.76575
       O     6.87215  -10.63416   -8.23772
      H1     6.44605  -10.04372   -8.94237
       H     1.00232  -13.02602   -9.47177
       O     0.11581  -12.69412   -9.33291
      H1    -0.20622  -13.10496   -8.51045
       H     3.82850  -13.81582   -8.73634
       O     4.47426  -13.91498   -8.04048
      H1     5.31298  -14.09740   -8.49777
       H     0.00682   -7.65034   -7.21654
       O    -0.85591   -7.09846   -7.33097
      H1    -1.47522   -7.44583   -7.97521
       H     8.38739   -9.88312  -11.99052
       O     7.78922  -10.43464  -12.43425
      H1     8.08491  -11.37129  -12.27895
       H     5.91404   -7.89598   -6.16578
       O     5.44089   -8.43927   -5.46990
      H1     6.04602   -8.37752   -4.72730
       H     4.42968   -6.12131  -13.26766
       O     4.18315   -6.79177  -13.94193
      H1     4.95152   -7.30537  -14.15125
       H     2.48183  -12.75920  -13.59984
       O     3.02025  -12.35048  -12.93608
      H1     3.71122  -12.95198  -12.54213
       H     3.19500   -4.00994   -8.79914
       O     2.72013   -4.87442   -8.98110
      H1     1.79176   -4.62229   -8.98809

