99
frame 1 | Written by MDAnalysis XYZWriter (release 2.4.3)
       H    -5.75142   13.11015   15.81154
       O    -5.42778   13.80362   16.48960
      H1    -6.16882   14.37513   16.45599
       H    -6.86047   11.54020   14.47769
       O    -6.71152   12.50018   14.47858
      H1    -7.52859   12.93906   14.70871
       H    -9.59259   13.99568   15.36860
       O    -8.76279   14.34238   15.09128
      H1    -8.70375   15.24758   15.39978
       H    -1.36706   16.37312   18.69306
       O    -1.28505   16.12809   19.61276
      H1    -1.84901   15.33240   19.62224
       H    -5.92617   10.12674   10.66301
       O    -5.97998   10.95096   11.14334
      H1    -5.87698   10.70716   12.07354
       H    -3.05326   13.02266   19.34199
       O    -2.09510   12.77608   19.30542
      H1    -1.92837   11.80495   19.30200
       H    -7.17880    8.99234   18.39885
       O    -7.19964    9.96186   18.45811
      H1    -7.31555   10.14693   19.36369
       H    -2.26848    9.45697   14.11831
       O    -3.08180    9.47373   13.61340
      H1    -2.94989   10.26332   13.07099
       H    -1.65681   11.89698   11.17253
       O    -0.80101   12.36215   11.09068
      H1    -0.89841   12.72651   10.18907
       H    -3.33544    8.24557   12.30433
       O    -3.63005    7.69590   11.51985
      H1    -4.02927    7.00465   12.00903
       H    -5.26777   16.88810   14.82189
       O    -5.38975   17.77348   15.20883
      H1    -5.19688   18.40004   14.51359
       H    -4.33713   11.44870   11.31950
       O    -3.36689   11.41527   11.34996
      H1    -3.10287   10.79135   10.63948
       H    -8.70414    9.07618   15.62335
       O    -8.57649    8.18414   15.96686
      H1    -9.38502    8.07773   16.48974
       H    -7.22972    7.22260   15.46936
       O    -6.41816    7.03096   14.95225
      H1    -5.66715    7.01225   15.54889
       H     0.68855   13.01965   17.22940
       O    -0.12344   12.48934   17.04325
      H1    -0.73736   12.58286   17.81846
       H    -0.87666   13.56684   15.94448
       O    -1.45371   13.96325   15.31150
      H1    -1.44719   14.91489   15.35797
       H    -9.56002   10.92269   13.99516
       O    -9.27074   10.76211   14.91559
      H1    -9.84830   11.38852   15.37760
       H    -7.55686   16.33721   16.98865
       O    -6.66575   16.33576   17.32823
      H1    -6.11639   16.91519   16.81227
       H    -3.30708    5.86988   15.63325
       O    -3.89241    6.31830   16.22368
      H1    -3.56672    7.16690   16.46023
       H    -0.32852   13.27653   13.87857
       O     0.34537   12.81470   13.39610
      H1    -0.14326   12.56443   12.56968
       H    -6.19264    8.95512   14.38675
       O    -5.96704    9.75170   13.98281
      H1    -5.03571    9.72202   13.74788
       H    -1.60535   10.32015   15.73886
       O    -1.16209    9.45687   15.85813
      H1    -0.27942    9.63896   16.24765
       H    -5.45440   15.38039   13.73692
       O    -4.55103   15.47842   14.14985
      H1    -4.52450   14.73320   14.80537
       H    -0.24298   10.25191   19.26443
       O    -1.20652   10.25441   19.05621
      H1    -1.33465    9.62864   18.29601
       H    -3.85236   17.70193   16.65417
       O    -3.13968   17.29681   17.23274
      H1    -3.40802   17.76880   18.04499
       H    -2.53404   12.51143   15.64807
       O    -2.82031   11.62979   15.75259
      H1    -3.69480   11.69670   16.18584
       H     1.99921   10.01052   17.27399
       O     1.09095    9.94503   17.42765
      H1     0.69870   10.83172   17.33446
       H     0.56087    7.93551   13.66119
       O     0.09811    8.77775   13.42013
      H1    -0.31725    8.91253   14.29994
       H    -1.84804   17.04090   16.22624
       O    -1.20459   16.94561   15.43465
      H1    -0.81411   17.80866   15.36952
       H    -5.79312   10.71364   17.56440
       O    -5.12106   11.26763   17.24794
      H1    -5.46569   12.16685   17.19564
       H    -3.86320    9.81083   17.49175
       O    -3.47515    8.89641   17.49083
      H1    -2.77537    9.03092   16.83491
       H    -3.85549    7.59021   18.88668
       O    -3.81481    7.31420   19.83445
      H1    -4.46786    7.95211   20.18826
       H    -5.02244   14.16162   19.15172
       O    -4.73053   13.39373   19.60745
      H1    -5.53020   12.90529   19.85707

