99
frame 1 | Written by MDAnalysis XYZWriter (release 2.4.3)
       H     8.30599   -0.08246   -0.22019
       O     7.75671   -0.82726   -0.44244
      H1     8.25952   -1.54456   -0.02288
       H     6.07847   -1.60007    3.75223
       O     5.57701   -1.36359    2.98916
      H1     5.95952   -0.54034    2.74403
       H     4.97350   -2.68678   -2.15522
       O     4.88933   -3.22932   -1.28393
      H1     5.21754   -4.06030   -1.54009
       H    10.72957   -1.47406   -0.34249
       O    11.27240   -1.23389   -1.08486
      H1    11.74608   -2.02030   -1.35236
       H     5.76571   -2.59937    1.91234
       O     5.85288   -3.30888    1.30219
      H1     5.65276   -2.87405    0.45648
       H    12.96906   -4.69844   -2.31300
       O    12.58262   -3.81616   -2.08983
      H1    11.72646   -3.74913   -2.56790
       H    12.51852   -1.32126   -6.27337
       O    12.35659   -1.94152   -5.60952
      H1    11.69505   -2.54299   -6.07389
       H     7.51399   -5.26646    2.82516
       O     8.29723   -4.85315    2.46878
      H1     7.97130   -4.14743    1.90619
       H    12.08266    2.86500   -1.04001
       O    12.07428    3.83152   -1.00593
      H1    13.00245    4.20208   -1.12210
       H     2.25383   -2.05595   -0.00226
       O     2.29102   -2.82802   -0.63439
      H1     3.23413   -2.87096   -1.04475
       H     9.25034   -0.64958    2.71126
       O     8.90897   -0.44711    3.58156
      H1     8.33139    0.35897    3.52855
       H     5.13666    2.98773    1.12467
       O     5.51455    2.22696    0.72554
      H1     6.04277    2.47334   -0.02658
       H     8.93061   -4.82295   -0.45748
       O     8.53986   -4.28583   -1.14489
      H1     9.25473   -3.99026   -1.74150
       H     4.23754    2.18907   -2.57284
       O     4.30137    1.21213   -2.71123
      H1     3.82786    0.91225   -1.85799
       H    10.44251   -0.55890    1.46137
       O    10.06315   -1.42336    1.32655
      H1    10.64187   -2.07344    1.82620
       H     6.26908    1.63212    2.15337
       O     6.33521    1.40387    3.07498
      H1     6.90077    2.06177    3.51383
       H     9.35931    1.21894   -3.95768
       O    10.19868    0.88258   -3.52469
      H1    10.99908    1.25263   -3.90355
       H    13.39173    1.02341   -0.91035
       O    12.45904    1.14977   -1.22736
      H1    12.07207    0.28394   -1.09640
       H    11.42511    1.09161    2.30924
       O    10.58103    1.40714    1.98238
      H1    10.59328    2.39599    2.01762
       H    12.49673    2.87970   -4.17135
       O    12.81013    1.93651   -3.93574
      H1    12.55859    1.59786   -3.04969
       H     5.65997    4.50164   -5.54011
       O     6.22852    3.79655   -5.95125
      H1     6.88187    3.48091   -5.29013
       H     9.18332    4.87093   -3.19653
       O     9.57318    4.46708   -4.01926
      H1    10.45821    4.11354   -3.86476
       H     6.26959    2.69858   -2.02081
       O     7.09276    2.89709   -1.58634
      H1     7.74347    2.21632   -1.77922
       H     6.63367   -5.66635   -2.37548
       O     6.58902   -4.93892   -3.00317
      H1     7.20724   -4.30966   -2.61958
       H     8.05930   -0.97230   -2.23942
       O     8.27503   -1.08880   -3.15723
      H1     9.08866   -0.59445   -3.40964
       H    10.69780   -0.54224   -7.48800
       O    10.30014   -1.20640   -8.07517
      H1    10.21348   -2.06990   -7.59830
       H     9.56491   -3.96342   -3.76541
       O    10.04858   -3.33584   -3.16961
      H1     9.58467   -2.46003   -3.02010
       H     4.84031   -3.58330   -5.88182
       O     5.61798   -3.03753   -6.13919
      H1     5.84402   -2.43258   -5.42716
       H     5.17927   -0.54610   -3.21188
       O     5.52691   -1.43323   -3.43039
      H1     6.48741   -1.20534   -3.13720
       H     8.75022    2.31278   -5.65401
       O     8.25485    2.28172   -4.78398
      H1     8.56161    3.01539   -4.24577
       H     4.10255    1.16814    0.36655
       O     3.28733    0.87585   -0.06677
      H1     2.98335    0.20336    0.52752
       H     7.96546   -5.07149   -4.53064
       O     8.85666   -5.42336   -4.48373
      H1     8.75265   -5.88079   -3.65325
       H     9.89677    1.62867   -1.31311
       O     9.39442    1.38581   -0.51394
      H1     9.92368    1.69060    0.19138

