99
frame 1 | Written by MDAnalysis XYZWriter (release 2.4.3)
       H     4.37944  -16.36421  -10.07738
       O     4.94327  -16.99947  -10.54049
      H1     5.85630  -16.85221  -10.27430
       H     0.63256  -11.98115   -6.31925
       O    -0.22835  -12.33995   -6.50846
      H1    -0.66289  -12.74792   -5.70409
       H     3.09867  -11.01918   -5.92127
       O     2.15173  -10.90175   -5.84300
      H1     1.92146  -11.06978   -4.89721
       H     7.97089  -14.44104   -0.77713
       O     7.55795  -15.30193   -0.64819
      H1     8.32668  -15.89546   -0.40367
       H     7.41774  -10.12732   -2.11989
       O     8.34356  -10.35023   -1.78574
      H1     8.73644  -10.84801   -2.48895
       H     5.84543  -14.00107   -5.06470
       O     5.11721  -13.41055   -5.15955
      H1     4.37483  -13.97383   -5.22241
       H     0.67964  -12.89408   -3.87358
       O     1.34313  -12.25091   -3.66682
      H1     0.86181  -11.62456   -3.12577
       H     7.88922  -18.04626   -5.00804
       O     7.40671  -17.26034   -5.35771
      H1     7.96764  -16.56873   -5.65731
       H     5.67560  -14.41160   -0.88455
       O     5.15451  -13.74267   -0.42478
      H1     4.79874  -13.15672   -1.14234
       H     7.04577  -12.36790  -11.02810
       O     7.60045  -12.36981  -10.24752
      H1     7.33095  -11.64637   -9.72229
       H     7.26526  -13.79276   -9.34377
       O     7.10793  -14.65955   -8.93320
      H1     7.71963  -15.31999   -9.28775
       H     5.35598  -10.53540   -6.04118
       O     4.70983  -11.02517   -6.62718
      H1     4.91334  -11.93747   -6.44236
       H     3.91559  -11.61500   -8.37625
       O     3.34192  -11.35502   -9.09190
      H1     2.41896  -11.13037   -8.70431
       H     6.89264  -15.51149   -2.52382
       O     6.22998  -15.86393   -3.21370
      H1     6.74365  -16.37587   -3.76367
       H     8.70062  -11.05366   -7.41684
       O     9.44571  -11.36571   -6.98769
      H1     9.89994  -12.02328   -7.53828
       H     0.66647  -18.56492   -4.71454
       O     0.35145  -18.98104   -3.94914
      H1    -0.20025  -18.38962   -3.46283
       H     2.12431   -8.29318   -7.64664
       O     1.53612   -8.37955   -6.88525
      H1     1.63350   -9.30354   -6.53575
       H     2.42215  -13.55804  -11.16895
       O     2.53571  -13.55622  -10.22743
      H1     2.87853  -12.68182  -10.06571
       H     3.45770  -17.61302   -2.54694
       O     3.61358  -16.63387   -2.48868
      H1     4.51179  -16.51069   -2.67120
       H     6.06020  -10.99996   -7.76575
       O     6.87215  -10.63416   -8.23772
      H1     6.44605  -10.04372   -8.94237
       H     0.87674  -18.92784   -7.44720
       O     1.72833  -18.95230   -6.99874
      H1     2.22011  -18.11669   -7.05278
       H     2.62862  -15.73969   -1.08487
       O     2.09048  -14.91290   -1.08662
      H1     2.65936  -14.15152   -0.78755
       H     3.10677  -15.65257   -3.90141
       O     2.67422  -15.33106   -4.65173
      H1     2.05790  -14.70670   -4.29985
       H     1.02813  -15.95496   -7.55388
       O     0.09033  -15.64539   -7.69043
      H1    -0.19932  -16.08384   -8.48737
       H     1.00232  -13.02602   -9.47177
       O     0.11581  -12.69412   -9.33291
      H1    -0.20622  -13.10496   -8.51045
       H     3.82850  -13.81582   -8.73634
       O     4.47426  -13.91498   -8.04048
      H1     5.31298  -14.09740   -8.49777
       H     3.59828  -16.07276   -7.79037
       O     2.99099  -16.59973   -7.23223
      H1     2.95142  -16.00456   -6.48019
       H     4.65473  -12.57044   -3.56309
       O     4.19273  -12.45448   -2.68454
      H1     3.31291  -12.07984   -2.90417
       H     5.91404   -7.89598   -6.16578
       O     5.44089   -8.43927   -5.46990
      H1     6.04602   -8.37752   -4.72730
       H     7.94568  -14.07581   -6.59951
       O     8.00021  -14.16873   -5.67730
      H1     8.92770  -14.08798   -5.55626
       H     4.42631  -17.60446   -6.55573
       O     5.11047  -18.30836   -6.56231
      H1     5.82636  -17.79436   -6.17016
       H     8.80840  -11.44985   -5.15272
       O     8.27518  -11.68406   -4.39568
      H1     7.93234  -12.56594   -4.65788
       H     5.67362  -10.20353   -0.89819
       O     5.53619  -10.13022   -1.86306
      H1     5.23311  -10.94920   -2.32343

