99
frame 2 | Written by MDAnalysis XYZWriter (release 2.4.3)
       H   -12.36454    7.77442   -4.73457
       O   -11.57065    8.29065   -4.72655
      H1   -11.20824    8.28277   -3.86068
       H    -7.34736    6.22728   -8.12988
       O    -7.88550    6.77892   -7.52909
      H1    -8.79498    6.55649   -7.71327
       H   -17.49047    9.69458   -6.45780
       O   -17.68116    9.80969   -5.49475
      H1   -17.74751    8.91684   -5.11830
       H   -10.26009    5.36076   -7.23270
       O   -10.46706    5.48195   -8.17441
      H1   -10.04268    4.73254   -8.67744
       H   -11.51498    5.24838   -4.99420
       O   -10.67179    5.49335   -5.35676
      H1   -10.42233    6.34299   -4.97546
       H   -13.23284    5.89807   -2.47793
       O   -13.22330    6.32137   -3.34980
      H1   -13.45203    7.26583   -3.16151
       H   -11.86298    9.15030   -2.02551
       O   -10.98510    8.65716   -2.03451
      H1   -11.12173    8.02584   -1.32540
       H   -14.68570    8.89789   -2.02106
       O   -14.22033    8.67753   -2.87387
      H1   -14.39233    9.33632   -3.47132
       H    -9.11439    4.14842   -6.07816
       O    -8.77090    3.26140   -6.17556
      H1    -9.50531    2.63200   -6.17752
       H    -8.34134   10.55530   -0.77322
       O    -9.27920   10.36852   -0.56986
      H1    -9.71183    9.84755   -1.30133
       H   -14.21239   12.12441   -5.99325
       O   -14.21798   12.79496   -6.69769
      H1   -13.33991   12.77957   -7.11154
       H   -12.95760   10.16898   -6.86759
       O   -12.98561    9.78291   -7.71204
      H1   -13.66423   10.27898   -8.17344
       H   -15.98590    5.14545   -4.57752
       O   -15.99869    5.85628   -3.93529
      H1   -15.06391    6.08702   -3.62147
       H   -17.07803    7.25206   -3.89272
       O   -17.91243    7.79765   -3.77795
      H1   -17.82044    8.16080   -2.87956
       H   -14.42821    7.06056   -9.18648
       O   -15.30863    7.40132   -8.90637
      H1   -15.92883    6.86040   -9.45228
       H   -13.58962    5.89415   -6.53331
       O   -13.46475    4.91337   -6.65564
      H1   -12.78996    4.93145   -7.34645
       H   -15.34736   11.41072   -3.97578
       O   -15.14702   10.77025   -4.72446
      H1   -16.02524   10.39353   -5.04770
       H   -16.50353    3.54989   -6.71258
       O   -15.67223    3.10974   -6.69651
      H1   -14.99748    3.80071   -6.63502
       H   -12.52411    6.65784  -10.43895
       O   -12.69356    6.24956   -9.56254
      H1   -11.80699    5.97044   -9.23520
       H   -17.94242    6.97470   -7.32420
       O   -17.11981    6.97067   -6.83941
      H1   -16.44448    6.99088   -7.52263
       H   -11.43956   12.57510   -4.66719
       O   -11.71146   13.23805   -4.04044
      H1   -12.65935   13.19384   -3.90430
       H   -14.73648    8.58840    0.21452
       O   -15.10494    9.08771   -0.49327
      H1   -16.08544    9.04632   -0.54558
       H   -11.18537    2.22347   -1.37485
       O   -12.11178    2.41029   -1.62142
      H1   -12.06730    2.67303   -2.60023
       H    -9.57167   10.47506   -7.28767
       O    -9.46868   11.45657   -7.04054
      H1   -10.03174   11.92983   -7.66374
       H   -11.24189    8.88574   -7.54654
       O   -10.33756    8.79535   -7.24070
      H1   -10.41746    8.42785   -6.35781
       H   -12.67717    4.16256   -1.10652
       O   -12.82177    5.05418   -0.72487
      H1   -13.65450    5.07788   -0.19728
       H   -12.87471    2.79094   -4.84650
       O   -12.74708    3.42660   -4.14955
      H1   -13.42069    4.12775   -4.36099
       H   -15.90011   10.45747   -8.33345
       O   -16.11516   10.97355   -7.55351
      H1   -15.31649   11.37628   -7.27746
       H   -11.11112   11.08570   -6.11472
       O   -11.86263   10.87977   -5.54598
      H1   -11.67198   10.00816   -5.07410
       H   -11.82716    6.32082    0.07046
       O   -11.14009    7.08857    0.10730
      H1   -10.84439    7.18399    0.98534
       H    -8.22969    6.52637   -3.00145
       O    -8.50381    7.32934   -3.61373
      H1    -9.06357    7.81138   -2.99981
       H    -7.86906    8.73635   -4.42025
       O    -7.25569    9.54396   -4.42114
      H1    -6.78664    9.56212   -5.28245
       H   -13.98900    8.56753   -6.68548
       O   -13.95656    7.75485   -6.09819
      H1   -14.88119    7.66429   -5.83647

