99
frame 2 | Written by MDAnalysis XYZWriter (release 2.4.3)
       H   -11.03463   17.84134   -0.91247
       O   -11.62818   17.53886   -0.20533
      H1   -11.14476   16.97829    0.38171
       H    -2.97378   17.74822   -3.06572
       O    -3.56530   17.45195   -2.34080
      H1    -3.32592   18.00654   -1.59217
       H    -1.21098   15.31251   -2.61605
       O    -1.88382   15.18381   -1.93549
      H1    -2.41604   15.99540   -1.93207
       H    -2.31799   13.15381    3.52280
       O    -2.20471   14.09849    3.31726
      H1    -3.09107   14.35451    3.05947
       H    -4.60977   18.94704    5.29662
       O    -5.37612   18.36382    5.17122
      H1    -5.63212   18.57836    4.25587
       H    -7.64265   15.80757    4.59675
       O    -8.58621   15.88058    4.30988
      H1    -8.55860   15.04000    3.79986
       H    -8.20210   12.25474    7.04633
       O    -7.57017   12.95349    7.09903
      H1    -7.82907   13.74779    6.61398
       H    -3.05181   16.35746    1.82200
       O    -2.22351   16.88863    1.84645
      H1    -2.27623   17.30537    2.72156
       H    -8.26325   19.24472    5.89702
       O    -7.58277   19.55785    6.50472
      H1    -6.77655   19.23405    6.13426
       H    -2.09726   14.90316    8.41447
       O    -2.78682   15.49889    8.30891
      H1    -3.00991   15.41147    7.34147
       H   -11.94878   19.17367    2.92393
       O   -11.14053   18.85530    2.58320
      H1   -10.59348   18.79520    3.37930
       H    -7.62493   13.52784    1.59223
       O    -6.86776   13.42702    1.01333
      H1    -7.17699   12.71039    0.45760
       H     0.31397   18.56837    4.07054
       O     0.66419   17.70635    4.07421
      H1     1.64158   17.73266    3.97457
       H    -9.07682   17.50791    4.45505
       O    -9.36834   18.46174    4.58553
      H1   -10.05420   18.38032    5.26459
       H    -8.39324   17.05452   -2.21837
       O    -7.66981   16.45168   -2.03731
      H1    -7.95404   15.52597   -2.23937
       H    -0.59477   15.15417    2.68829
       O     0.24128   15.19272    2.25916
      H1     0.61483   16.06428    2.61484
       H    -0.54457   13.96917    0.98740
       O    -0.77895   13.49431    0.18682
      H1    -1.30766   14.11965   -0.35253
       H    -9.82038   17.81195   -3.29150
       O    -9.73020   18.15275   -2.35616
      H1    -9.63680   19.09746   -2.37855
       H    -5.54126   14.91992    2.16945
       O    -4.62623   15.26625    2.21513
      H1    -4.79338   16.17364    2.61466
       H    -5.46717   12.04539    3.65030
       O    -4.99035   12.00178    2.80873
      H1    -5.59288   12.37417    2.14036
       H    -9.40438   16.22383    7.47021
       O    -9.77291   15.62541    6.81796
      H1    -9.31703   15.76836    5.94301
       H    -0.81874   16.93606    0.52949
       O    -0.30432   17.32211   -0.22565
      H1    -0.39048   16.59969   -0.81284
       H    -9.59271   13.06418    3.19327
       O    -9.06651   13.74630    2.68255
      H1    -9.66214   14.20052    2.08106
       H    -1.48925   18.85574   -0.31110
       O    -2.34458   19.19292   -0.62438
      H1    -3.01311   19.40979    0.03534
       H    -6.45212   17.68929    2.04586
       O    -5.54892   17.87703    2.45130
      H1    -5.06832   18.46292    1.80494
       H    -5.16550   18.06363   -3.07891
       O    -6.09746   18.32730   -3.03562
      H1    -6.45943   17.52999   -2.62450
       H    -7.53150   17.08290    0.08575
       O    -7.84662   17.40612    0.96640
      H1    -8.18933   18.33556    0.85498
       H    -0.47319   17.22101    5.23527
       O    -1.21082   17.34723    5.89103
      H1    -1.91167   16.68584    5.83260
       H    -5.18251   17.47946    8.37015
       O    -5.00773   18.42307    8.36109
      H1    -4.42945   18.59326    7.56509
       H    -3.09454   19.96438    5.68465
       O    -3.10661   19.30208    6.44642
      H1    -2.37665   18.68509    6.16438
       H    -5.90190   16.70074    5.60964
       O    -6.06173   15.76494    5.73541
      H1    -6.20268   15.63466    6.64513
       H    -9.70539   15.30176    0.19811
       O    -9.95303   15.69508    1.01491
      H1    -9.30348   16.40704    1.09248
       H    -4.47112   15.34100    5.40079
       O    -3.47766   15.38673    5.48027
      H1    -3.08510   14.57175    5.04483

