99
frame 2 | Written by MDAnalysis XYZWriter (release 2.4.3)
       H    -4.60977   18.94704    5.29662
       O    -5.37612   18.36382    5.17122
      H1    -5.63212   18.57836    4.25587
       H    -7.64265   15.80757    4.59675
       O    -8.58621   15.88058    4.30988
      H1    -8.55860   15.04000    3.79986
       H    -6.89278   17.09998   11.28303
       O    -7.40480   16.31653   11.45312
      H1    -6.79871   15.60197   11.59387
       H   -10.14719   16.99196    9.94585
       O    -9.40814   16.78056    9.35837
      H1    -8.70264   16.43419    9.92469
       H    -8.20210   12.25474    7.04633
       O    -7.57017   12.95349    7.09903
      H1    -7.82907   13.74779    6.61398
       H    -8.26325   19.24472    5.89702
       O    -7.58277   19.55785    6.50472
      H1    -6.77655   19.23405    6.13426
       H    -2.09726   14.90316    8.41447
       O    -2.78682   15.49889    8.30891
      H1    -3.00991   15.41147    7.34147
       H    -6.65686   14.20533   12.77347
       O    -5.93197   14.14300   12.08862
      H1    -6.34582   13.44084   11.53234
       H    -9.07682   17.50791    4.45505
       O    -9.36834   18.46174    4.58553
      H1   -10.05420   18.38032    5.26459
       H    -2.05146   12.59214   10.55137
       O    -1.16376   12.96802   10.74660
      H1    -0.68101   12.97891    9.90629
       H    -5.84096   17.58550   14.34263
       O    -6.28622   18.22163   14.87282
      H1    -6.08617   19.12292   14.58640
       H    -5.54126   14.91992    2.16945
       O    -4.62623   15.26625    2.21513
      H1    -4.79338   16.17364    2.61466
       H    -9.40438   16.22383    7.47021
       O    -9.77291   15.62541    6.81796
      H1    -9.31703   15.76836    5.94301
       H    -2.23491   18.23953   10.58524
       O    -1.75701   17.74982    9.93088
      H1    -2.38448   17.02953    9.66954
       H    -1.44827   12.85154    7.49614
       O    -0.74362   13.25538    8.06736
      H1     0.09366   13.05301    7.65863
       H    -0.58562   16.71443   10.79104
       O    -0.09837   16.06305   11.28518
      H1    -0.56963   15.24974   11.22433
       H    -2.77277   16.87685   13.27740
       O    -2.12709   17.54245   12.90302
      H1    -1.62632   16.96478   12.31335
       H    -5.88974   19.43215   11.27359
       O    -6.47062   19.06829   10.62888
      H1    -6.08504   18.89019    9.78061
       H   -11.70549   17.70967    7.01002
       O   -11.32895   18.43965    6.49768
      H1   -10.97109   19.03712    7.18584
       H    -4.38688   14.89240   13.52116
       O    -3.81635   15.45357   14.00603
      H1    -3.36757   14.89402   14.60271
       H    -0.57766   18.83348    8.38885
       O    -0.02611   19.01425    7.61779
      H1    -0.47662   18.50589    6.90923
       H    -8.69286   17.13085   12.85636
       O    -9.33632   17.23241   13.57519
      H1   -10.04486   17.77058   13.31558
       H    -6.45212   17.68929    2.04586
       O    -5.54892   17.87703    2.45130
      H1    -5.06832   18.46292    1.80494
       H    -9.73071   18.60310    9.01403
       O    -9.93783   19.50240    9.00593
      H1    -9.28968   20.07257    9.48755
       H    -2.70168   11.51493    7.20157
       O    -3.08804   12.22895    6.62343
      H1    -3.99576   11.91393    6.48617
       H    -0.47319   17.22101    5.23527
       O    -1.21082   17.34723    5.89103
      H1    -1.91167   16.68584    5.83260
       H    -7.63899   13.23671    8.93940
       O    -7.64053   13.10572    9.91730
      H1    -7.18065   12.21785    9.98828
       H    -5.18251   17.47946    8.37015
       O    -5.00773   18.42307    8.36109
      H1    -4.42945   18.59326    7.56509
       H    -4.56651   15.52421    8.76925
       O    -5.52421   15.71860    8.71239
      H1    -5.98814   14.92708    8.94989
       H    -3.09454   19.96438    5.68465
       O    -3.10661   19.30208    6.44642
      H1    -2.37665   18.68509    6.16438
       H    -5.90190   16.70074    5.60964
       O    -6.06173   15.76494    5.73541
      H1    -6.20268   15.63466    6.64513
       H    -4.47112   15.34100    5.40079
       O    -3.47766   15.38673    5.48027
      H1    -3.08510   14.57175    5.04483
       H    -6.11275   12.32108    5.99367
       O    -5.69085   11.66073    5.41679
      H1    -6.46947   11.01881    5.30170

