99
frame 2 | Written by MDAnalysis XYZWriter (release 2.4.3)
       H   -10.82895  -16.13578   -7.17463
       O   -10.01756  -16.50012   -7.62405
      H1   -10.33510  -17.36593   -7.93859
       H   -15.03306  -19.48396    1.14248
       O   -15.09292  -19.09155    0.23229
      H1   -14.25184  -18.60311    0.14410
       H   -10.62083  -16.50935   -3.56359
       O   -10.09722  -16.02207   -4.27755
      H1    -9.25291  -16.51690   -4.44192
       H   -12.96709  -19.03481   -5.51576
       O   -12.19844  -19.39845   -5.06005
      H1   -12.67809  -20.20024   -4.78644
       H    -8.65301  -14.26951   -5.78854
       O    -9.25252  -13.51729   -5.98313
      H1    -9.53890  -13.30425   -5.13637
       H   -16.96260  -15.64491   -3.46638
       O   -17.60087  -15.14095   -3.95062
      H1   -18.35128  -15.68248   -3.92692
       H   -11.24827  -13.18087    0.19175
       O   -10.48994  -12.71563   -0.15690
      H1   -10.77459  -11.81381   -0.47541
       H   -15.64644  -16.24272   -0.70355
       O   -15.34973  -15.80126    0.07317
      H1   -15.76369  -16.03787    0.85841
       H    -9.46512  -18.69160   -0.72587
       O    -9.70772  -18.13029   -1.56567
      H1   -10.68188  -17.95617   -1.65524
       H   -16.40607  -12.26352    2.23998
       O   -15.65613  -12.50901    1.59629
      H1   -14.85321  -12.15237    2.02546
       H   -11.95149  -16.58395    2.90274
       O   -11.32072  -16.38832    2.15670
      H1   -11.44822  -15.42496    2.00830
       H   -13.03333   -9.54572   -5.17542
       O   -13.02966   -8.88729   -4.48638
      H1   -13.91207   -8.53249   -4.68310
       H    -9.62326  -14.67962   -3.14585
       O    -9.33887  -13.87687   -2.71408
      H1    -9.75053  -13.87527   -1.85922
       H   -15.02705  -12.52420   -1.47665
       O   -14.13430  -12.25250   -1.39517
      H1   -13.61854  -13.09002   -1.51894
       H    -9.20571  -10.60571   -2.26955
       O    -9.96688  -10.29552   -1.77385
      H1   -10.31487   -9.48100   -2.22283
       H    -7.78838  -12.64507   -2.59927
       O    -7.56804  -11.73190   -2.52158
      H1    -6.66221  -11.79935   -2.19130
       H   -16.23573  -12.30184   -4.41747
       O   -15.66557  -13.07166   -4.54955
      H1   -16.17336  -13.86299   -4.74870
       H    -7.09091  -15.71564   -0.77544
       O    -6.62360  -15.07158   -0.22343
      H1    -7.16378  -14.32274   -0.03709
       H    -7.37364  -12.03805   -0.21153
       O    -7.76510  -12.62973    0.42526
      H1    -8.74637  -12.58531    0.31489
       H   -12.82053  -11.59969   -3.10472
       O   -12.04668  -11.96423   -3.56674
      H1   -11.25972  -11.70493   -3.02718
       H   -12.69298  -14.95321    0.08220
       O   -12.73374  -14.20226    0.70034
      H1   -13.69483  -13.93113    0.70802
       H   -12.51339  -14.95570   -6.00202
       O   -12.17218  -15.83502   -6.03445
      H1   -11.42187  -15.87647   -5.49396
       H   -13.23441  -11.50856   -6.53304
       O   -13.43212  -10.62796   -6.79883
      H1   -14.14773  -10.57316   -7.45694
       H   -15.48325  -17.93979   -5.42694
       O   -14.68826  -17.60455   -5.02916
      H1   -14.24755  -17.01317   -5.71152
       H    -8.16905  -17.23239   -2.29413
       O    -7.30922  -16.84203   -2.19868
      H1    -6.94815  -16.59549   -3.06629
       H   -12.36670  -17.51264   -1.68299
       O   -12.02042  -17.39575   -2.56693
      H1   -11.98510  -18.26417   -2.98037
       H   -14.90775  -15.29652   -2.78391
       O   -15.28249  -16.11248   -2.55152
      H1   -14.96747  -16.76913   -3.17097
       H   -10.85643  -10.22574   -5.15588
       O   -10.16716  -10.03927   -5.77535
      H1   -10.13081  -10.72300   -6.45493
       H   -12.74293   -9.56888   -1.28688
       O   -12.76414   -9.88416   -0.39307
      H1   -13.25738  -10.73454   -0.51317
       H   -12.24829  -14.50674   -9.47545
       O   -12.92144  -14.89418   -8.87870
      H1   -12.85637  -14.49115   -8.00551
       H   -11.88153  -13.79872   -2.87222
       O   -12.39971  -14.39154   -2.26851
      H1   -12.81741  -15.16023   -2.76094
       H   -12.43620  -17.05261    0.80487
       O   -12.98425  -17.13394    0.01219
      H1   -13.86981  -16.72816    0.18837
       H   -14.06874  -13.20113   -5.23187
       O   -13.19336  -13.31275   -5.61515
      H1   -12.62910  -12.75636   -4.95272

