99
frame 3 | Written by MDAnalysis XYZWriter (release 2.4.3)
       H    -0.55667   10.54434    7.96975
       O    -1.44095   10.69625    8.40483
      H1    -1.72991    9.85164    8.77134
       H    -4.38811    4.90455    9.84946
       O    -4.46554    4.64600   10.75189
      H1    -4.80606    3.74668   10.76555
       H    -1.46220   12.61352    3.51127
       O    -1.72849   13.48536    3.12358
      H1    -2.22154   13.28607    2.31648
       H    -0.29474    6.25376    5.86007
       O    -0.32342    6.12326    6.83778
      H1     0.48085    6.47551    7.17870
       H    -2.17150    5.72445    9.57270
       O    -2.16493    4.71403    9.56684
      H1    -2.67736    4.51241   10.39128
       H    -6.08459    9.84256    9.78409
       O    -6.75626   10.40666   10.21916
      H1    -6.68660   10.14116   11.16097
       H    -2.24135   15.17789    9.16039
       O    -2.49223   15.83749    8.47433
      H1    -2.16185   15.48090    7.70114
       H     0.85703    9.55758    6.02584
       O     0.65414    9.87849    6.89807
      H1     1.52848   10.12115    7.31570
       H     1.12544    7.74889    9.91531
       O     0.59027    7.64067   10.73433
      H1     0.69064    8.39321   11.23167
       H    -6.10695    7.86395   11.90949
       O    -5.70554    7.17025   11.33244
      H1    -4.79803    7.09879   11.58362
       H    -4.05696   11.60205   13.63556
       O    -4.71906   11.39935   12.97897
      H1    -4.44725   11.78252   12.15248
       H     3.32575   11.29389    7.99654
       O     2.40236   11.58357    8.19445
      H1     2.39148   11.73353    9.15316
       H    -2.49371   13.32034   10.18730
       O    -1.62750   13.71551    9.98710
      H1    -1.27051   13.38647    9.16997
       H     1.92939   13.02668    5.63123
       O     2.08009   13.61219    6.37053
      H1     2.35256   13.02806    7.06244
       H    -3.88795    9.53418   12.97951
       O    -3.62083    8.64803   12.78972
      H1    -3.20342    8.34993   13.61336
       H    -5.03776   12.33535   10.31054
       O    -4.13285   12.10819   10.51345
      H1    -4.02577   11.24074   10.02559
       H    -1.08513    7.45828    9.74766
       O    -1.74240    7.34930    9.03493
      H1    -1.23429    7.13709    8.22769
       H    -1.20719   13.34091    6.82791
       O    -0.61658   13.77319    7.42793
      H1     0.23840   13.57506    7.10024
       H    -4.76745    4.86567    7.04367
       O    -4.30568    5.34781    7.72698
      H1    -3.44048    4.94977    7.70683
       H    -1.25559    8.48777    3.10101
       O    -1.65197    9.37478    2.99868
      H1    -2.56313    9.23900    2.72522
       H    -1.42739   11.65919    5.20662
       O    -0.87147   11.27973    4.56427
      H1    -1.22986   10.49649    4.11074
       H     0.65545   10.58941   12.83389
       O     1.24923   11.36940   12.69592
      H1     0.73617   12.16481   12.82058
       H    -1.13860   13.84666   12.78860
       O    -0.32096   13.84137   12.28964
      H1    -0.72283   13.70357   11.43353
       H    -4.12416    8.92874    7.79542
       O    -4.31400    8.95795    8.71832
      H1    -3.64383    8.36828    9.13151
       H    -2.01765    3.71530    8.00258
       O    -1.76781    3.71750    7.01811
      H1    -1.25095    4.53786    6.85890
       H    -3.07404   11.78986    6.75243
       O    -2.98303   12.25390    5.94079
      H1    -3.82458   12.17729    5.52680
       H     2.48875    7.15074    8.05474
       O     1.63322    7.61376    8.15597
      H1     1.53282    8.17135    7.38149
       H     0.68443   11.91885    4.07300
       O     1.58681   12.20312    3.81962
      H1     1.40389   12.95254    3.17973
       H     1.52250    8.82112    3.92038
       O     1.08508    8.37655    4.64104
      H1     1.62711    7.58697    4.82933
       H    -0.12714    8.40923   13.68158
       O    -0.56977    9.17323   13.22764
      H1    -1.54038    8.96483   13.26645
       H     0.62625    5.36767   10.95660
       O     0.72162    4.75301   11.66928
      H1     0.65155    3.85155   11.27306
       H     2.37086   13.29591   10.20476
       O     2.65751   12.52044   10.70800
      H1     2.04969   12.14978   11.40200
       H    -6.07268    7.10812    5.70118
       O    -5.29596    7.73776    5.71825
      H1    -4.51677    7.15894    5.74408

