99
frame 2 | Written by MDAnalysis XYZWriter (release 2.4.3)
       H    -4.70537   -3.46814  -11.29291
       O    -4.41066   -4.12349  -10.65413
      H1    -3.64690   -3.76883  -10.15686
       H    -4.02955   -2.35665   -6.30906
       O    -3.38929   -1.97588   -6.96195
      H1    -3.94238   -1.68919   -7.69189
       H     3.02787    2.84829  -10.77265
       O     3.76840    2.20506  -10.84345
      H1     4.25173    2.43581  -10.02565
       H    -0.73749   -2.05568   -2.93406
       O    -1.45538   -1.65801   -3.43694
      H1    -1.09561   -1.65975   -4.37575
       H     0.17931    1.64992   -8.51656
       O     1.11583    1.70906   -8.82498
      H1     1.10320    1.91925   -9.74307
       H     1.45982   -5.92910  -12.19570
       O     1.45185   -5.11547  -12.74642
      H1     0.74262   -5.18800  -13.37138
       H     0.73106   -3.35170   -9.54562
       O     0.46529   -4.06561   -8.95552
      H1     0.40779   -4.81414   -9.52805
       H     0.46073   -7.30224  -11.11112
       O    -0.26014   -6.75830  -10.63341
      H1    -0.64879   -6.31623  -11.40532
       H    -1.04337   -3.00753   -6.19481
       O    -0.88306   -2.10219   -6.01716
      H1    -1.56746   -1.74777   -6.56560
       H     5.67726   -4.96220  -10.61742
       O     4.73324   -5.16477  -10.47558
      H1     4.43454   -4.54851   -9.82150
       H     1.24817    2.75729  -14.52110
       O     1.93919    2.45036  -13.93587
      H1     1.56444    2.39009  -13.03439
       H    -2.38518   -2.74049  -13.42994
       O    -2.03400   -3.07258  -14.31069
      H1    -1.58888   -3.96430  -14.15889
       H     2.28140   -3.34602   -5.11456
       O     1.68916   -2.72994   -4.61416
      H1     0.98882   -2.57782   -5.24700
       H     5.16637    3.41005   -7.70314
       O     4.89555    2.78480   -8.42759
      H1     4.32715    2.09508   -8.01282
       H    -0.06484    1.47157  -11.94700
       O     0.71714    2.05101  -11.69747
      H1     0.39368    2.95012  -11.49467
       H     5.49955   -1.00204  -10.33597
       O     6.12232   -0.77976  -11.05434
      H1     5.60678   -0.27438  -11.71231
       H    -1.54941   -3.47712   -9.03933
       O    -2.35579   -3.07335   -9.21845
      H1    -2.75847   -2.88604   -8.35466
       H     2.79315   -2.26794  -12.10234
       O     2.68986   -2.81285  -12.89638
      H1     2.16907   -3.59935  -12.62597
       H    -0.41182   -0.32128  -13.54953
       O    -1.03250    0.40003  -13.14634
      H1    -1.77131   -0.09997  -12.78377
       H     3.59334    0.18509   -4.30756
       O     2.73180   -0.05404   -4.68157
      H1     2.70763   -1.01947   -4.80158
       H     3.46985    0.74533  -11.83567
       O     3.37687   -0.13057  -12.22760
      H1     3.67199   -0.02762  -13.14527
       H    -3.15896    3.17649  -10.96007
       O    -2.81803    3.86714  -11.59773
      H1    -3.47729    4.62648  -11.52047
       H    -4.20454   -1.49205  -12.77399
       O    -3.40956   -1.34992  -12.23851
      H1    -3.75976   -0.87147  -11.53180
       H     2.84160    0.57632   -6.36117
       O     3.14346    0.78579   -7.24938
      H1     2.33700    1.13319   -7.64078
       H     1.12527   -2.36044  -13.77510
       O     0.44609   -1.84898  -14.25928
      H1    -0.34211   -2.47630  -14.21135
       H    -4.17407    0.85132   -9.64521
       O    -4.26158    1.81740   -9.87546
      H1    -5.16982    2.03207   -9.95373
       H    -1.58207    0.01099   -9.00074
       O    -1.71535   -0.57123   -9.75748
      H1    -1.83911   -1.45615   -9.34697
       H    -1.31910    0.35979  -16.10713
       O    -1.53443    1.23396  -15.63770
      H1    -1.44405    0.89445  -14.72933
       H     0.28670   -1.08766   -9.96760
       O     1.18969   -1.31893   -9.95789
      H1     1.75448   -0.53828   -9.77649
       H    -5.48390   -0.04487   -8.52176
       O    -5.00454   -0.76493   -8.94386
      H1    -5.57637   -1.33450   -9.43950
       H     5.51855   -1.49116   -7.79578
       O     4.64938   -1.41408   -8.17725
      H1     4.26447   -0.62822   -7.70431
       H    -1.26438    1.56959   -6.65415
       O    -1.36251    1.32148   -7.62887
      H1    -2.02422    1.99599   -7.94310
       H     3.78125   -3.00522   -8.32053
       O     3.58223   -3.97888   -8.32079
      H1     2.65877   -4.16026   -8.19272

