99
frame 3 | Written by MDAnalysis XYZWriter (release 2.4.3)
       H   -11.48750    9.88354    2.98602
       O   -12.34440   10.29268    3.22997
      H1   -12.77965   10.55223    2.40994
       H    -9.75778    7.78205    7.33829
       O    -8.80756    7.57076    7.34471
      H1    -8.76165    6.93351    8.02209
       H   -14.14482    9.75771    6.93183
       O   -13.73136   10.08860    7.72167
      H1   -12.79576    9.96236    7.51456
       H   -12.17109    8.85744   -2.01583
       O   -11.27183    8.66983   -1.70755
      H1   -11.51071    8.05014   -1.02911
       H   -10.28763    6.25213    3.75468
       O    -9.46488    6.67258    3.45294
      H1    -8.75952    6.60761    4.10996
       H    -8.24121   12.04383    7.14856
       O    -7.66047   12.78714    6.88985
      H1    -8.32101   13.41941    6.54957
       H   -10.69272    4.76485    5.88309
       O   -10.07976    4.52566    6.56307
      H1   -10.43295    5.04275    7.29180
       H    -8.96006   10.76770   -1.19529
       O    -9.85912   10.90012   -0.90448
      H1   -10.30109   10.08756   -1.09937
       H    -6.76170    5.76152    0.68245
       O    -7.27218    5.77710   -0.13869
      H1    -7.85912    4.99947    0.02593
       H   -11.81128    8.08375    7.44170
       O   -11.25189    8.64793    6.89236
      H1   -11.82677    8.81068    6.15718
       H    -9.13036    8.49379    1.36589
       O    -9.31430    7.84973    0.60745
      H1    -8.54382    7.25738    0.47433
       H    -7.96961   11.98546    2.55012
       O    -7.51439   11.80518    1.68606
      H1    -8.20754   11.40718    1.11737
       H   -13.34340   11.40011    0.50144
       O   -13.85531   10.83478    1.03614
      H1   -14.21390   10.19220    0.40672
       H    -5.55689    8.54436    3.95881
       O    -5.98535    8.84097    3.07915
      H1    -5.46262    9.61393    2.90017
       H   -11.54165    6.27775    5.76495
       O   -11.77679    5.95382    4.85328
      H1   -12.54510    5.38351    4.99981
       H   -13.03410    7.00573    3.17423
       O   -13.55149    7.34184    2.49540
      H1   -13.05637    7.14276    1.69479
       H    -7.25533    5.42256    5.31096
       O    -7.62651    6.31079    5.24119
      H1    -8.01718    6.54691    6.08822
       H   -10.19757   12.91913    3.84725
       O    -9.35764   13.23961    3.47680
      H1    -9.54499   13.93716    2.85342
       H   -12.00303   11.91177    4.46548
       O   -11.49607   12.48111    5.06419
      H1   -10.94165   11.83846    5.60007
       H   -10.09011    5.56810    1.81667
       O   -10.50596    4.89368    1.25143
      H1   -10.49491    4.17623    1.87507
       H    -9.23636    9.76269    3.63723
       O    -9.97872    9.30833    3.18593
      H1    -9.79032    8.32035    3.41196
       H   -15.21402    6.63869    2.45749
       O   -16.05502    6.30799    2.79461
      H1   -16.36143    5.63501    2.17037
       H    -8.76431    4.59566    3.33585
       O    -9.15845    3.73903    3.49250
      H1    -8.97744    3.64957    4.45638
       H   -14.42103    8.57592    5.17550
       O   -13.49300    8.85343    5.25613
      H1   -13.17245    9.20540    4.38954
       H   -10.17220   11.84115    8.10907
       O    -9.80776   11.34307    7.35911
      H1   -10.10218   10.43126    7.46345
       H    -7.09596    9.69652    3.97176
       O    -7.56395    9.96169    4.82007
      H1    -7.36545    9.33797    5.47574
       H    -4.89342    6.01917    1.80809
       O    -5.69728    6.11614    2.37333
      H1    -5.78948    7.03397    2.60135
       H   -12.12278    6.11974    0.19122
       O   -12.01180    7.05537    0.16988
      H1   -11.07715    7.22273    0.50111
       H    -9.13761    6.29261   -2.90006
       O    -9.06281    7.21233   -2.68429
      H1    -9.79658    7.42650   -2.07575
       H   -13.86955    5.77230    7.34587
       O   -12.96883    6.05229    7.44195
      H1   -12.48654    5.46544    8.02466
       H    -9.41694    4.17618    0.03253
       O    -8.72673    3.57117   -0.30506
      H1    -8.62726    3.87649   -1.22189
       H    -6.07268    7.10812    5.70118
       O    -5.29596    7.73776    5.71825
      H1    -4.51677    7.15894    5.74408
       H    -6.03366   12.93507    5.17077
       O    -5.62271   12.27497    4.59057
      H1    -6.20718   11.53977    4.68040

