99
frame 0 | Written by MDAnalysis XYZWriter (release 2.4.3)
       H    17.05871  -10.89082   -4.45374
       O    16.69418  -11.13986   -5.30405
      H1    16.06413  -10.42417   -5.46965
       H    16.76045  -13.29272    0.34563
       O    16.02817  -12.79039   -0.06306
      H1    15.96638  -13.04896   -1.02265
       H    18.99327   -9.13013   -8.82051
       O    18.18112   -9.44669   -8.41009
      H1    17.78514   -8.76245   -7.81428
       H    17.15597  -11.63367   -0.33617
       O    17.88278  -11.10834   -0.71384
      H1    18.75126  -11.21390   -0.22978
       H    17.25766   -9.52996   -0.00490
       O    17.28958   -8.96834    0.77296
      H1    16.67159   -9.34757    1.38205
       H    13.59911   -4.74653   -4.27605
       O    14.02361   -4.07891   -3.70388
      H1    14.89777   -4.45728   -3.46419
       H    13.83715  -11.84451   -4.77463
       O    14.16928  -12.66728   -4.39369
      H1    13.42583  -13.23309   -4.28840
       H    17.26799   -4.12644   -1.71925
       O    16.74736   -3.69066   -2.43533
      H1    16.32286   -2.96595   -1.93353
       H    18.46777   -4.28343   -3.29105
       O    19.37473   -4.41918   -3.56617
      H1    19.76576   -3.53698   -3.54403
       H    13.17017   -8.91129   -0.35984
       O    13.49058   -8.13678   -0.84289
      H1    14.44591   -8.21079   -1.00327
       H    12.46481   -8.44326   -2.28945
       O    11.92811   -8.94428   -2.95427
      H1    11.95430   -9.86694   -2.74773
       H    16.19333  -14.60045   -2.55941
       O    16.18573  -13.62599   -2.56235
      H1    15.41925  -13.36497   -3.08516
       H    12.27238  -10.03876   -6.03303
       O    12.98552  -10.15759   -5.37848
      H1    12.82779   -9.60710   -4.59702
       H    13.56973   -9.46219   -9.22252
       O    13.09262   -9.01739   -8.48372
      H1    13.82465   -8.69921   -7.88402
       H    15.61428  -14.60631   -6.02132
       O    16.25572  -13.89807   -6.24171
      H1    16.12790  -13.22240   -5.57397
       H    15.56395   -6.51611   -8.78340
       O    15.38361   -5.77558   -8.20674
      H1    15.19569   -5.05755   -8.80215
       H    13.77837   -8.89128   -5.98910
       O    14.45464   -8.23692   -6.30112
      H1    14.16316   -7.33172   -6.05476
       H    17.10634   -5.03697   -7.54395
       O    18.07142   -4.81724   -7.64222
      H1    18.58490   -5.14107   -6.86195
       H    19.00076   -8.81004    1.16839
       O    19.77387   -8.49255    1.72353
      H1    20.19836   -7.81850    1.09218
       H    16.09604   -2.31944   -5.39771
       O    16.94893   -2.37144   -4.95146
      H1    16.83090   -2.66592   -4.05519
       H    13.01808   -5.26833   -0.12298
       O    13.57827   -5.77546    0.48635
      H1    13.65891   -6.60607   -0.01867
       H    18.85032   -7.17189    2.69604
       O    18.53070   -6.72918    3.55702
      H1    18.35184   -5.83398    3.26724
       H    18.27557  -13.58550   -5.87236
       O    19.12471  -14.02749   -5.80936
      H1    19.13527  -14.70186   -6.50156
       H    18.29926   -8.66312   -3.60987
       O    18.21605   -7.72128   -3.50572
      H1    18.98573   -7.20976   -3.25987
       H    17.01189   -7.24925   -9.61022
       O    16.20007   -7.72506   -9.86602
      H1    16.48906   -8.62047  -10.03125
       H    19.18025  -13.54629   -4.05488
       O    18.99121  -12.91983   -3.28238
      H1    18.06928  -13.09789   -3.01723
       H    18.32385   -5.52006   -8.95069
       O    18.52454   -6.23552   -9.72829
      H1    18.56656   -5.61003  -10.49793
       H    18.48315  -10.91338   -7.87801
       O    18.59004  -11.79589   -7.36865
      H1    17.95982  -11.67474   -6.68212
       H    15.66168  -10.86845   -8.92781
       O    15.35102  -10.63435   -9.83934
      H1    16.11379  -10.69312  -10.41480
       H    16.46708   -7.68457   -6.46959
       O    17.40026   -7.69770   -6.36220
      H1    17.63735   -7.72773   -5.40660
       H    16.61571   -7.51059   -2.31493
       O    16.11407   -7.76936   -1.50353
      H1    16.84492   -7.85226   -0.83006
       H    13.85316   -5.51686   -6.65042
       O    13.24999   -5.70028   -5.94899
      H1    12.38208   -5.85590   -6.34440
       H    18.97692  -10.96322   -3.45110
       O    18.21919  -10.33482   -3.31191
      H1    17.99881  -10.60919   -2.43468

