99
frame 2 | Written by MDAnalysis XYZWriter (release 2.4.3)
       H     8.64000   17.84377   11.46933
       O     8.83819   16.98099   11.07874
      H1     8.11582   16.45881   11.39938
       H     9.39968   15.69055    2.18161
       O     8.55900   16.11765    2.51880
      H1     7.91701   15.38233    2.56953
       H    13.71197   15.24503    2.42882
       O    14.10252   14.42836    2.01061
      H1    14.57118   13.95585    2.71242
       H     8.16394   13.05594    7.92983
       O     7.40675   13.62699    7.81390
      H1     6.82611   13.21964    7.17753
       H    11.66823   18.43066    0.99348
       O    12.37979   18.59330    1.64411
      H1    11.99877   19.05506    2.41214
       H     3.38587   19.65159    4.96630
       O     3.29298   18.71857    4.71040
      H1     4.06871   18.48583    4.20092
       H    12.38866   11.67130    7.88951
       O    11.48733   11.51444    8.10020
      H1    11.22057   12.16555    8.77585
       H    14.38459   15.98300    7.28566
       O    14.35215   15.51439    8.16832
      H1    15.29378   15.39916    8.50101
       H     7.44637   19.87296    8.73548
       O     6.78462   19.85451    8.05744
      H1     6.05790   19.29096    8.31884
       H    13.34130   17.30500    2.90729
       O    13.11828   16.57965    3.45115
      H1    13.81756   16.60515    4.18932
       H     2.68478   14.86086    6.91022
       O     3.21860   15.44779    7.41807
      H1     2.81676   16.33957    7.33316
       H    10.21076   16.33985   10.15972
       O    11.00924   16.17836    9.58475
      H1    11.75590   16.28068   10.21333
       H    11.02718   17.93505    9.20120
       O    11.18550   18.86944    8.80016
      H1    10.30645   19.31551    8.85781
       H     7.50965   15.83181   -0.67256
       O     8.02316   15.28721   -0.05909
      H1     7.99923   15.77436    0.77192
       H    13.31646   17.33330    6.06881
       O    14.30902   17.20088    5.94063
      H1    14.76680   17.94087    5.65373
       H     9.77268   14.54669    4.70451
       O    10.40699   13.87500    4.52504
      H1    11.18291   14.01579    5.03852
       H     9.41642   19.32474    3.49262
       O     8.51115   19.27865    3.19014
      H1     7.91563   19.16794    3.92227
       H     8.23598   16.57930    8.17816
       O     7.95050   16.42673    7.26932
      H1     7.95394   15.46215    7.16275
       H    13.47393   13.73232    6.01864
       O    12.59815   14.04741    6.24869
      H1    12.59816   14.39488    7.16230
       H     8.76638   16.74731    5.60255
       O     9.48732   16.38004    5.05340
      H1     9.09304   16.41479    4.12489
       H     5.39229   15.18639    2.83237
       O     6.24359   14.80369    3.16462
      H1     6.14510   14.71135    4.11064
       H     6.13101   11.32041    5.37207
       O     6.13664   11.46019    6.31571
      H1     6.98639   11.05221    6.64292
       H     6.34133   19.11740    0.38593
       O     6.33368   19.28136    1.34520
      H1     7.21359   19.38477    1.70396
       H    10.49877   11.79317    6.92169
       O     9.82621   11.85024    6.22578
      H1     9.92932   12.66558    5.67189
       H    11.52052   17.98015    7.20431
       O    11.64172   17.98073    6.20598
      H1    11.12134   17.20855    5.89629
       H     8.99861   17.82765    1.18167
       O     9.31995   18.12746    0.32346
      H1     9.21464   19.09126    0.32743
       H     5.07397   18.21235    1.98275
       O     4.36569   17.54130    2.08198
      H1     3.54435   17.99558    1.81423
       H     6.09687   14.78995    8.56600
       O     5.36844   15.07315    9.08064
      H1     4.66532   14.93644    8.49295
       H     5.25427   13.35297    5.64355
       O     5.55835   14.22095    5.86920
      H1     4.79023   14.67509    6.28335
       H    11.14677   14.30030   10.05295
       O    11.29740   13.38470   10.17360
      H1    10.70416   13.09550   10.88332
       H    11.84046   15.61399    2.21821
       O    11.23185   15.28899    1.56608
      H1    11.39584   14.34826    1.65515
       H     7.29826   18.12793    5.82052
       O     6.96500   18.94332    5.43501
      H1     7.11794   19.54270    6.17016
       H     9.63005   13.15684    3.00131
       O     8.99832   12.83655    2.35933
      H1     9.12222   11.85223    2.47135

