99
frame 3 | Written by MDAnalysis XYZWriter (release 2.4.3)
       H     0.02875  -12.49858   11.49598
       O    -0.39268  -12.90224   10.69388
      H1    -0.27976  -12.19147   10.04018
       H     1.03317   -8.41235   13.16794
       O     1.73198   -8.50613   13.82807
      H1     2.53803   -8.10103   13.48006
       H     5.66997  -13.22374   11.94497
       O     6.17608  -14.00717   11.93899
      H1     6.57671  -14.00287   11.03071
       H    -1.18821  -16.53878   14.58425
       O    -1.63111  -17.32685   14.96213
      H1    -2.55496  -17.13923   15.02590
       H    -0.93175   -9.89328   11.78059
       O    -0.25773   -9.13964   11.77922
      H1     0.67586   -9.51998   11.66456
       H    -0.10180  -13.79627   19.11386
       O    -0.28044  -12.91060   18.86090
      H1     0.36676  -12.73548   18.14568
       H     4.48529  -11.24873    8.83885
       O     3.73068  -11.87109    8.50421
      H1     4.17495  -12.72171    8.18580
       H    -3.15636  -10.18232   12.76997
       O    -2.60642  -10.78296   12.22767
      H1    -3.12296  -10.83268   11.47499
       H    -2.18071  -12.18254   13.17860
       O    -2.10533  -12.99599   13.69984
      H1    -2.75157  -13.58452   13.32523
       H    -4.42609  -13.13352   16.06602
       O    -4.02399  -12.29629   15.79463
      H1    -3.34088  -12.55575   15.12947
       H     0.87827  -11.01264   15.95117
       O     0.13139  -10.92056   15.31562
      H1    -0.42322  -11.69176   15.49007
       H    -1.67581   -8.25363   14.32690
       O    -1.19929   -8.37874   15.18195
      H1    -0.67682   -9.15070   14.97573
       H     4.76506   -9.74818   14.69044
       O     5.02829   -9.48980   13.80193
      H1     4.67748  -10.14945   13.15240
       H     1.36387  -10.59297    9.12776
       O     0.53900  -10.91232    8.83693
      H1     0.67457  -11.29614    7.91913
       H     0.65060  -11.58412   13.81522
       O     0.93101  -12.07645   13.05902
      H1     1.22973  -12.88513   13.52864
       H     0.96230  -15.71088   19.94984
       O     0.42648  -15.57373   19.13112
      H1     0.98886  -15.62399   18.34378
       H     3.31677   -9.99813   16.30592
       O     4.15732  -10.44150   16.10000
      H1     4.47887  -10.75535   16.97900
       H     2.24790  -17.81878   11.87911
       O     2.75590  -17.11789   11.47837
      H1     3.40792  -17.64667   10.94041
       H    -1.11584  -14.48257   13.45267
       O    -0.86048  -15.25510   12.97263
      H1    -1.18958  -15.22643   12.06983
       H     2.97919  -10.49693   11.46925
       O     2.31229   -9.86455   11.08050
      H1     2.76159   -9.01008   10.94500
       H     4.57065   -6.54577   12.90218
       O     3.94668   -7.13885   13.35276
      H1     4.51798   -7.92105   13.33505
       H     5.06073  -11.61790   10.88021
       O     4.59577  -11.82927   11.70131
      H1     3.80485  -12.18773   11.33027
       H     2.45538  -15.06757   13.72033
       O     1.57419  -14.75087   13.94867
      H1     0.87071  -15.20394   13.37610
       H     1.91721  -16.10625   16.51854
       O     1.73663  -15.13077   16.55301
      H1     1.51664  -14.89224   15.59188
       H     1.87368  -14.76917    9.61765
       O     1.60567  -15.60802    9.27026
      H1     1.80472  -16.15589   10.05326
       H     4.63099  -12.86154   15.09833
       O     3.92500  -13.44562   15.39090
      H1     3.39012  -12.91384   16.01010
       H     6.41691  -13.48367   17.83567
       O     6.28744  -14.38463   17.46729
      H1     5.56902  -14.24884   16.80189
       H     5.14137  -17.19144   15.93770
       O     5.40758  -16.46767   15.34909
      H1     4.69827  -16.15613   14.76742
       H     1.63128  -13.11749   10.81017
       O     2.56671  -13.21582   10.54557
      H1     2.60410  -12.73776    9.67710
       H     4.61251  -14.92618   12.54969
       O     4.09729  -15.58742   13.05946
      H1     3.45859  -15.94447   12.45546
       H     1.84113   -8.81752   15.50319
       O     2.14234   -8.83959   16.47178
      H1     2.71852   -8.11121   16.53674
       H    -1.66823  -15.50441    9.21094
       O    -1.56331  -15.24109   10.13014
      H1    -1.16641  -14.36885   10.30824
       H     2.02556  -13.45902   17.10283
       O     2.07797  -12.44506   17.21389
      H1     2.20656  -12.32749   18.20015

