99
frame 2 | Written by MDAnalysis XYZWriter (release 2.4.3)
       H     9.27838  -11.88856   10.90547
       O     9.85508  -12.63860   10.64183
      H1     9.28329  -13.39927   10.57055
       H    10.92100  -16.75466   11.67842
       O    11.27832  -17.07236   10.78886
      H1    10.54971  -17.51241   10.28132
       H     7.34708  -17.06496   13.15993
       O     8.04789  -17.29796   12.58904
      H1     8.81845  -17.25125   13.18110
       H     9.43274  -14.48361   14.05539
       O    10.06666  -14.89485   14.65358
      H1     9.55097  -15.41309   15.28983
       H    12.56870  -18.51076   11.00072
       O    13.04103  -19.25019   11.38538
      H1    12.90501  -19.94479   10.70108
       H    14.54830  -17.11311   14.07776
       O    14.34718  -17.48030   14.95603
      H1    13.73493  -16.83913   15.34666
       H     9.47671  -14.08818    5.95495
       O    10.30646  -14.13020    6.36940
      H1    10.97115  -14.38967    5.68871
       H    12.27413  -12.97486   15.38791
       O    11.55184  -12.98800   16.05551
      H1    10.82499  -13.25803   15.52341
       H     5.29987  -13.51860   11.68208
       O     5.75331  -14.33794   11.92512
      H1     6.42199  -14.45923   11.21527
       H    16.64950  -16.51818   12.54090
       O    17.06738  -16.82587   11.70903
      H1    17.98208  -17.03405   11.93803
       H    10.69409  -16.35684   13.89007
       O    10.86483  -17.21522   13.45179
      H1    10.93315  -17.92716   14.15926
       H    13.73690  -13.33617    9.85377
       O    13.63694  -12.48107    9.46798
      H1    12.76943  -12.43586    9.05529
       H     5.96262  -17.36098    9.86250
       O     6.85550  -17.15300   10.12203
      H1     6.88289  -17.42277   11.06930
       H    10.29872  -12.22875   12.66500
       O    10.93008  -11.66969   13.06463
      H1    11.65725  -11.61155   12.35028
       H     7.50290  -16.58128   15.59435
       O     8.24946  -16.50168   16.20825
      H1     8.05254  -15.69490   16.72440
       H     9.60585  -17.55817    8.39785
       O     9.55123  -18.14180    9.20091
      H1     8.85269  -17.82059    9.76991
       H    14.43164  -14.03240   14.51624
       O    13.68495  -13.68642   14.09378
      H1    14.11148  -13.10083   13.42449
       H     7.70435  -12.77096   13.62475
       O     8.17820  -13.51297   13.25809
      H1     7.54043  -14.09992   12.76335
       H    11.92057  -16.17443   17.21469
       O    12.44978  -15.79394   16.45253
      H1    11.95490  -15.02403   16.23783
       H    14.64889  -15.03962   11.08883
       O    15.26541  -14.38961   10.76360
      H1    16.05566  -14.95432   10.45858
       H    12.66770  -19.42918    8.33340
       O    13.59481  -19.12541    8.22492
      H1    14.12510  -19.91453    8.38682
       H    11.30710  -19.48568   16.63369
       O    10.90285  -18.72329   16.15105
      H1    10.54896  -18.13983   16.82739
       H    13.72270  -10.78483   12.34856
       O    13.39828  -11.60518   11.99987
      H1    13.69604  -11.70658   11.05777
       H    12.27197  -16.11609    8.94574
       O    12.60601  -16.63684    8.17664
      H1    12.88536  -17.46708    8.49546
       H    12.86297  -16.61199   12.98744
       O    13.64132  -16.06643   12.72525
      H1    13.45498  -15.19927   13.13706
       H    17.92766  -14.76683    9.65137
       O    17.64211  -15.65265    9.46847
      H1    17.44335  -16.03748   10.37641
       H    13.93824  -18.27398    4.69672
       O    14.31798  -18.90934    5.31392
      H1    13.70472  -18.84767    6.07807
       H     6.89608  -14.38260    9.35013
       O     7.57596  -14.58320   10.09803
      H1     7.53929  -15.52888   10.17297
       H     5.56676  -17.64968   14.38786
       O     6.16976  -16.92176   14.43524
      H1     5.67039  -16.13870   14.27739
       H    16.46072  -16.24093    7.72912
       O    16.45341  -17.01925    7.14963
      H1    15.60366  -17.12231    6.72497
       H     8.39320  -17.95028    4.46817
       O     8.77068  -17.11176    4.59816
      H1     9.19762  -17.14748    5.48047
       H     9.95338  -15.81733    6.96228
       O    10.12334  -16.76327    6.95822
      H1    11.05994  -16.86833    7.22196
       H    10.49081  -12.42851    9.07824
       O    11.12067  -12.32636    8.34643
      H1    10.89503  -12.96634    7.64903

