99
frame 3 | Written by MDAnalysis XYZWriter (release 2.4.3)
       H   -12.12452  -14.71842   14.61642
       O   -12.39641  -15.61853   14.48218
      H1   -13.31494  -15.57360   14.20875
       H   -11.62253   -7.60495   17.89701
       O   -12.42421   -8.01361   18.21232
      H1   -12.75430   -7.64922   19.01014
       H   -10.24576  -10.01493   17.68167
       O   -10.91527  -10.20864   18.32612
      H1   -11.47486   -9.43991   18.27589
       H    -4.77158  -16.20827   15.37689
       O    -4.40737  -16.85629   14.76449
      H1    -4.24871  -16.23237   14.03160
       H   -13.46250  -10.78103   16.74120
       O   -12.96985  -11.59573   16.90806
      H1   -12.39127  -11.31086   17.60428
       H    -9.83670   -8.38791   16.26749
       O    -9.62543   -9.29354   15.93264
      H1    -9.64397   -9.26891   14.97928
       H    -8.20021  -14.28837   16.02461
       O    -7.57863  -15.00378   15.81629
      H1    -7.52720  -15.03288   14.84502
       H   -14.52094  -12.80009   16.83772
       O   -15.47307  -12.91271   16.97872
      H1   -15.89481  -13.43000   16.30964
       H    -8.40030  -12.31673   10.66814
       O    -7.89599  -12.70903   11.35691
      H1    -7.11670  -12.21042   11.51843
       H    -6.40945  -17.82221   14.55185
       O    -7.12629  -18.02353   13.89878
      H1    -7.86389  -18.47614   14.32573
       H    -7.58128  -14.54296   12.38068
       O    -7.30785  -15.17382   13.00505
      H1    -7.59497  -15.99653   12.70234
       H    -2.58334  -12.96355   18.80007
       O    -3.49524  -12.91050   18.58496
      H1    -3.46627  -12.40836   17.77102
       H   -11.96620  -12.65061   16.01321
       O   -11.56168  -13.29126   15.44573
      H1   -11.45037  -12.86312   14.59846
       H    -7.27555   -8.59583   15.78586
       O    -6.65613   -7.91504   15.54464
      H1    -6.73340   -7.60774   14.62986
       H    -4.42609  -13.13352   16.06602
       O    -4.02399  -12.29629   15.79463
      H1    -3.34088  -12.55575   15.12947
       H    -2.77566   -9.18498   16.49930
       O    -2.93142   -9.45788   17.41085
      H1    -2.11481   -9.30772   17.93960
       H    -5.36614   -8.73519   18.91361
       O    -6.34009   -9.04804   18.86320
      H1    -6.22433   -9.79773   18.24957
       H    -8.96991  -16.92584   18.00204
       O    -8.92536  -17.02888   17.03692
      H1    -8.36288  -16.34283   16.67863
       H    -4.43898  -14.67452   11.97910
       O    -4.60582  -14.91964   12.91221
      H1    -5.56925  -15.23951   12.81058
       H    -8.80884  -19.92928   17.08442
       O    -9.59334  -19.59070   16.65783
      H1    -9.44623  -18.66451   16.75179
       H    -5.19564  -12.28795   12.69169
       O    -5.41803  -11.53872   12.14401
      H1    -5.81659  -10.88185   12.72181
       H   -10.14394  -13.02835   16.66485
       O    -9.39563  -13.22633   17.19239
      H1    -9.77310  -13.54104   17.99637
       H   -11.75836  -16.04992   16.04975
       O   -11.62788  -16.53183   16.93315
      H1   -10.65150  -16.50430   16.89459
       H    -5.56255  -11.51737   15.40054
       O    -6.33783  -11.14308   14.98621
      H1    -6.99562  -11.07463   15.67613
       H    -4.64287   -9.70772   14.86612
       O    -3.89458   -9.12857   14.55046
      H1    -4.12094   -8.28038   14.99888
       H    -9.31392   -9.39621   12.62400
       O   -10.02162   -9.21770   13.24257
      H1   -10.78896   -9.53718   12.69541
       H    -8.03253   -4.83965   15.57927
       O    -7.86621   -5.41501   16.28759
      H1    -7.22054   -6.10991   16.02954
       H    -9.64715   -6.96531   18.15528
       O   -10.06813   -6.77451   17.28024
      H1    -9.30897   -6.48633   16.75042
       H    -4.92941  -14.70499   17.68099
       O    -5.18384  -14.53443   16.75027
      H1    -6.14033  -14.66818   16.50814
       H    -3.35710   -7.96946   18.51848
       O    -3.97202   -7.23020   18.82955
      H1    -3.34436   -6.66288   19.32728
       H    -7.27876  -18.57749   19.26965
       O    -7.95799  -19.02733   19.76255
      H1    -8.78483  -18.67817   19.44732
       H    -5.45640   -6.71762   16.36613
       O    -4.60406   -6.22194   16.35815
      H1    -4.23718   -6.28804   17.21540
       H    -7.99560  -12.25733   17.46724
       O    -7.17046  -11.69810   17.67241
      H1    -6.52737  -12.27768   18.11005

