99
frame 0 | Written by MDAnalysis XYZWriter (release 2.4.3)
       H    -7.40015   -0.58482   14.32594
       O    -6.64444   -0.08263   14.09764
      H1    -5.91589   -0.68069   13.99945
       H    -9.98113    5.34535   12.97821
       O   -10.62471    5.48232   13.64095
      H1   -10.50028    6.44194   13.79760
       H   -12.50486    3.87841   13.84016
       O   -12.71440    3.02889   14.15176
      H1   -12.09462    2.80748   14.79129
       H   -13.09998    2.87469   18.04704
       O   -12.38588    2.51419   18.59167
      H1   -12.13958    3.15131   19.26480
       H   -14.17554   -0.43928   15.66286
       O   -13.24568   -0.40663   15.89704
      H1   -13.01330   -1.03065   15.13607
       H   -10.34392   -2.70631   16.28251
       O   -10.18038   -2.03814   16.86673
      H1    -9.24361   -1.78250   16.74732
       H   -15.17255    2.51265   16.53995
       O   -14.39786    3.05678   16.82475
      H1   -13.86045    3.20759   16.07651
       H   -15.47468    0.78767   12.29395
       O   -16.06274    0.04540   12.59154
      H1   -16.92169    0.28954   12.33218
       H    -7.82076    1.38675   13.84899
       O    -8.49667    2.10219   14.02337
      H1    -8.53711    2.55393   13.14180
       H    -7.80197    3.10389   15.57300
       O    -7.30477    3.73973   16.03675
      H1    -6.96719    4.34130   15.44738
       H   -15.99732   -0.13851   14.31456
       O   -15.92070   -0.24840   15.25034
      H1   -16.19747   -1.20182   15.34466
       H   -16.41544   -1.19840   18.63395
       O   -17.24913   -0.97053   19.06497
      H1   -17.70063   -1.77923   19.31285
       H   -16.43976    3.06954   18.97664
       O   -15.98341    2.50328   19.65825
      H1   -15.46063    1.90208   19.11846
       H   -12.95148    5.77143   16.95808
       O   -12.15195    6.21966   17.29731
      H1   -11.35171    5.71190   17.00454
       H    -7.61486   -1.69103   18.27825
       O    -7.58257   -1.33325   17.39296
      H1    -6.61996   -1.27670   17.24564
       H   -13.88048    2.34637   12.84144
       O   -14.41072    2.26966   12.07417
      H1   -13.97957    1.81375   11.31584
       H   -15.26793    4.84289   17.76464
       O   -15.42617    5.31725   18.51204
      H1   -14.79441    4.96566   19.13401
       H    -6.10350    2.31312   16.47186
       O    -5.21344    1.93578   16.64249
      H1    -4.67043    2.54297   17.22374
       H   -12.64138   -2.93263   13.97388
       O   -12.43412   -1.95879   13.88469
      H1   -11.77599   -1.88226   13.19966
       H   -12.81460   -0.69389   18.52936
       O   -12.48956   -1.62449   18.48848
      H1   -11.80121   -1.66170   17.81572
       H   -16.15558   -2.79715   16.86748
       O   -16.80882   -2.63272   16.16746
      H1   -17.65912   -2.81651   16.57533
       H    -9.75634   -0.95996   15.25698
       O    -9.44559   -0.47638   14.42237
      H1    -9.61472    0.45159   14.42391
       H    -6.87626    2.08945   19.48131
       O    -7.83184    2.32739   19.50822
      H1    -8.15652    2.06890   18.62668
       H   -10.32299   -5.27928   15.68051
       O   -10.36872   -4.52819   15.01321
      H1   -11.35435   -4.46663   14.96209
       H    -9.50146    0.98943   16.77217
       O    -8.56147    1.06688   17.01134
      H1    -8.26241    0.18063   17.29244
       H    -9.83901   -2.26098   12.08427
       O   -10.59374   -1.82896   11.76883
      H1   -10.30457   -0.93317   11.73928
       H   -10.70158    1.07129   10.49364
       O   -10.48021    1.04602   11.47047
      H1   -11.12467    1.66078   11.88253
       H   -14.15014    6.85961   15.51560
       O   -14.13827    5.89672   15.49205
      H1   -15.01208    5.65234   15.80839
       H    -8.76112    4.68059   16.44780
       O    -9.59947    5.20127   16.38916
      H1    -9.96762    4.96799   15.50055
       H   -18.24728    1.66295   16.43392
       O   -17.74897    1.91429   15.57722
      H1   -17.05469    1.19570   15.45428
       H   -14.54157   -4.19525   17.67787
       O   -14.86914   -3.51167   18.28672
      H1   -14.18154   -3.26292   18.89537
       H   -13.24980   -4.90642   15.51944
       O   -13.09134   -4.45466   14.66194
      H1   -14.00168   -4.19907   14.45734
       H   -11.48048    1.72337   17.18681
       O   -11.15655    1.22315   16.41243
      H1   -11.77269    0.50252   16.37337

