99
frame 3 | Written by MDAnalysis XYZWriter (release 2.4.3)
       H   -11.85070    8.28990   -5.21489
       O   -11.11861    8.48077   -4.62551
      H1   -11.36014    8.23238   -3.68425
       H   -17.11788   10.59780   -5.77139
       O   -17.27985   10.39019   -4.85066
      H1   -17.60776    9.46704   -4.76168
       H   -10.42542    5.50948   -6.99642
       O   -10.44043    5.33742   -7.97475
      H1   -10.05250    4.44858   -8.14762
       H   -10.49136   13.82966  -10.80327
       O   -11.19048   13.25492  -10.38105
      H1   -11.86221   13.19959  -11.06587
       H   -11.00766    5.71975   -4.78827
       O   -10.36606    6.09680   -5.38675
      H1   -10.50800    7.04780   -5.28350
       H   -13.25075   12.31544  -12.78591
       O   -13.39927   12.02465  -11.85210
      H1   -14.29083   12.18404  -11.59968
       H   -13.58817    5.27763   -2.18865
       O   -13.80711    5.79417   -2.98590
      H1   -13.80533    6.74509   -2.74844
       H    -7.08966    9.03486   -9.46708
       O    -7.87015    8.80953   -9.96296
      H1    -8.67091    8.88002   -9.41833
       H   -12.17109    8.85744   -2.01583
       O   -11.27183    8.66983   -1.70755
      H1   -11.51071    8.05014   -1.02911
       H   -14.59777    8.66107   -1.80100
       O   -13.87980    8.63475   -2.48094
      H1   -14.00183    9.45631   -3.02136
       H    -8.05250   11.00139   -4.55628
       O    -7.88466   11.91758   -4.99617
      H1    -8.59236   11.96693   -5.64442
       H   -13.48631    9.35879   -9.99957
       O   -12.80809    8.90135  -10.54249
      H1   -12.00063    9.40791  -10.36738
       H   -14.45383   12.10878   -5.44468
       O   -14.64447   12.83017   -6.08233
      H1   -13.80306   13.13646   -6.45024
       H   -12.59674   10.36195   -6.62457
       O   -12.68326    9.67011   -7.29560
      H1   -13.47424    9.93083   -7.80504
       H    -9.75452   10.61064  -10.96105
       O   -10.53524   10.44247  -10.32877
      H1   -10.82497   11.33697  -10.12363
       H   -14.89507   13.30791   -2.42898
       O   -14.12245   12.67219   -2.45809
      H1   -13.98178   12.51203   -1.51317
       H   -14.29105    6.33815   -8.68434
       O   -15.18033    6.33928   -8.26179
      H1   -15.80567    5.93339   -8.88123
       H   -12.97204    5.53582   -6.75971
       O   -12.90530    4.55717   -6.74809
      H1   -12.88460    4.19084   -7.61402
       H   -14.27570   11.43363   -3.49530
       O   -14.51025   10.77725   -4.25030
      H1   -15.51313   10.79381   -4.21063
       H   -12.39790    7.16653   -9.68374
       O   -12.75402    6.39699   -9.25148
      H1   -12.02330    5.94330   -8.85282
       H   -17.34511    6.45374   -6.27616
       O   -16.45368    6.36933   -5.85674
      H1   -15.94326    6.12631   -6.63594
       H   -11.37166   12.59150   -4.02886
       O   -11.58916   13.44730   -3.62156
      H1   -12.28238   13.30810   -2.97033
       H   -14.37531   16.41500   -6.92259
       O   -13.93125   16.47116   -6.06651
      H1   -13.40345   15.64805   -5.94052
       H    -9.76864   11.10563   -7.38421
       O    -9.73931   12.04445   -7.02428
      H1   -10.52886   12.46407   -7.30866
       H   -11.87674   13.79943   -8.42104
       O   -11.83659   13.79615   -7.45530
      H1   -11.47179   14.66156   -7.13695
       H   -10.44459    8.87943   -7.55554
       O    -9.61706    9.32837   -7.75532
      H1    -8.97898    9.09911   -7.10922
       H    -7.70698   14.18291   -8.84046
       O    -7.97746   14.29909   -7.89620
      H1    -8.53661   13.47346   -7.80286
       H   -16.34722   10.60101   -7.99752
       O   -16.60263   11.23417   -7.30835
      H1   -15.80251   11.55647   -6.96119
       H   -10.93430   11.35820   -5.74619
       O   -11.57594   11.09570   -5.09338
      H1   -11.19298   10.22163   -4.85333
       H    -8.93751    8.59585   -4.06357
       O    -8.44814    9.23818   -4.62806
      H1    -7.66995    8.81037   -5.02943
       H   -13.09602    7.92943   -6.87257
       O   -13.14475    7.27385   -6.11284
      H1   -14.04796    7.26286   -5.74763
       H   -15.06311    8.16002   -8.57812
       O   -15.19723    9.05386   -8.93127
      H1   -15.65866    8.99976   -9.81730
       H   -16.71766   15.03652   -8.60943
       O   -17.31380   14.25732   -8.47323
      H1   -16.86258   13.68999   -7.85293

