99
frame 4 | Written by MDAnalysis XYZWriter (release 2.4.3)
       H   -16.56083    4.65868    7.37765
       O   -16.40932    3.74403    7.69560
      H1   -15.93800    3.82718    8.55918
       H   -13.08986    0.91589    3.72894
       O   -13.84550    1.17109    3.16311
      H1   -14.54458    1.55782    3.75956
       H   -13.22764    3.90038   12.37842
       O   -12.87646    3.19905   11.84101
      H1   -12.51764    2.60819   12.50772
       H    -8.62825    3.63104    6.16404
       O    -8.02247    3.54997    5.40864
      H1    -7.34845    2.88875    5.65323
       H   -10.27372    6.28132    5.20029
       O    -9.58102    6.23122    4.55048
      H1    -8.74620    6.49504    5.01216
       H   -10.83774    4.50111    7.21357
       O   -10.21718    3.77072    7.32444
      H1    -9.62641    4.14953    8.02942
       H   -16.14528    3.04843    4.54125
       O   -15.60483    2.68337    5.22338
      H1   -16.13431    2.73875    6.00806
       H   -11.61274    0.40051    1.99531
       O   -11.24032    0.99547    1.30406
      H1   -10.45262    0.65491    0.92060
       H   -11.71003   -1.19909    3.97363
       O   -11.49235   -0.27020    3.99521
      H1   -10.53865   -0.22564    4.25578
       H    -8.87666    3.38258   10.84521
       O    -9.15925    2.77687   11.51592
      H1    -9.94388    2.25253   11.15959
       H   -12.53949   -3.78204    4.57685
       O   -12.53939   -2.85798    4.91171
      H1   -13.46738   -2.52179    4.83377
       H    -9.78967   -3.63163    6.65394
       O   -10.55929   -3.12156    6.83611
      H1   -11.00993   -2.98259    6.02020
       H   -13.47703    2.14867   10.30350
       O   -13.30581    1.49817    9.60132
      H1   -14.09957    0.93487    9.66453
       H   -12.44304    6.57811    7.27800
       O   -11.70858    6.20829    6.69467
      H1   -12.15611    5.86360    5.89012
       H    -8.49762    2.59223    2.65449
       O    -8.23719    1.68185    2.65813
      H1    -7.32925    1.71672    2.26232
       H    -8.21222    5.22259    9.41763
       O    -8.04451    4.27551    9.44411
      H1    -7.43283    4.11757    8.71552
       H   -13.03772    5.49233    3.41699
       O   -12.93905    6.33874    3.00582
      H1   -12.14186    6.43173    2.36890
       H   -10.96769    2.03188    6.93927
       O   -11.62158    1.28347    6.97469
      H1   -12.18274    1.40172    7.73484
       H    -7.27171    5.93124    5.87040
       O    -7.21551    6.83341    5.61001
      H1    -7.55058    7.28745    6.38296
       H   -12.95507   -1.58274    7.85154
       O   -13.33462   -0.92070    7.23730
      H1   -12.70741   -0.23437    6.98968
       H   -11.61257    4.26795    9.04984
       O   -11.44916    4.53931    9.93210
      H1   -11.89414    3.95142   10.53806
       H    -8.86526   -0.31327    5.41303
       O    -8.84110   -0.38637    4.47953
      H1    -8.49398    0.35881    3.97159
       H    -5.94546    1.59888    6.88154
       O    -5.86851    1.38766    5.95928
      H1    -4.99385    1.76155    5.79648
       H   -13.97592    3.77564    5.73215
       O   -13.72094    4.68156    5.45169
      H1   -14.05279    5.18892    6.23468
       H   -10.34787    0.06346    7.58574
       O    -9.66359   -0.63664    7.79795
      H1   -10.02545   -1.56842    7.82693
       H    -8.99465    5.19128    3.04549
       O    -8.68980    4.43304    2.48379
      H1    -7.73698    4.55422    2.47113
       H    -9.73752   -2.95241   11.67370
       O   -10.41191   -2.19993   11.53889
      H1    -9.95706   -1.36491   11.38517
       H   -11.92358    0.80373   10.53940
       O   -11.05455    0.80824   10.95985
      H1   -11.30114    0.42670   11.83782
       H    -8.43379   -0.55665    9.28140
       O    -7.60424   -0.65726    9.77264
      H1    -7.72546   -0.22690   10.69067
       H   -16.18896   -1.79115    5.63756
       O   -15.32866   -2.20188    5.73117
      H1   -14.78589   -1.50001    6.16683
       H    -6.83668    0.80141    8.68127
       O    -6.25015    1.60068    8.58984
      H1    -5.61984    1.41302    9.31606
       H   -14.50408    7.06279    8.63491
       O   -14.01251    6.33775    8.17281
      H1   -14.11018    5.55227    8.78060
       H   -11.55624   -2.37077    9.66510
       O   -12.18544   -2.64093    9.02144
      H1   -11.72852   -2.97876    8.24006

