99
frame 3 | Written by MDAnalysis XYZWriter (release 2.4.3)
       H    11.24980    6.67031  -19.83725
       O    11.52899    6.12173  -19.12097
      H1    11.96048    5.36533  -19.52278
       H    13.66142    2.63928  -17.51418
       O    14.60465    2.82520  -17.55142
      H1    14.79754    2.79482  -18.49184
       H    14.71840   -1.82802  -16.64036
       O    14.61572   -0.86336  -16.76575
      H1    15.48396   -0.53361  -16.66716
       H    12.26919   -0.06274  -18.76742
       O    12.45366    0.29259  -17.92427
      H1    13.25521   -0.06738  -17.51538
       H    13.17978    8.48004  -15.34886
       O    13.28550    9.26442  -15.88790
      H1    13.16382    8.99936  -16.78422
       H    12.53944    5.37919  -14.12296
       O    12.86792    4.65809  -13.51630
      H1    12.59076    4.90490  -12.63699
       H     9.56379   -1.69075  -19.99302
       O    10.20129   -1.18513  -19.47693
      H1    10.72053   -1.83354  -18.98146
       H     9.85771   -0.14723  -17.78189
       O     9.45131    0.52083  -17.22156
      H1    10.00661    0.55245  -16.41142
       H    17.47762    0.45574  -14.91143
       O    17.37735   -0.20219  -15.60505
      H1    17.31863    0.39598  -16.35481
       H    18.26321    7.33024  -15.53112
       O    19.10830    7.76670  -15.89927
      H1    19.57307    6.99559  -16.30928
       H    11.65470    6.17705  -16.38118
       O    12.32702    6.40129  -15.79363
      H1    13.18747    6.06757  -16.03868
       H     9.47102    3.71229  -15.40626
       O     9.97060    3.29806  -14.70458
      H1     9.58591    2.43991  -14.61126
       H    16.38206   -3.17674  -17.53683
       O    15.45683   -3.35021  -17.47116
      H1    15.30202   -4.27467  -17.33016
       H    12.69871   -0.84151  -14.34799
       O    11.99397   -0.29203  -14.79839
      H1    12.40467   -0.28052  -15.65912
       H    15.34871    7.63764  -19.41520
       O    15.49871    6.73297  -19.17323
      H1    16.40709    6.51365  -19.16282
       H     8.44017    6.43574  -19.24721
       O     8.82673    6.09319  -18.40822
      H1     9.75943    6.00791  -18.56186
       H    15.04887    4.80949  -16.51649
       O    14.85482    5.75343  -16.53852
      H1    15.00625    5.90864  -17.43745
       H    20.27878   -0.12999  -18.44056
       O    19.68585   -0.23610  -17.72876
      H1    18.80622   -0.52126  -18.14087
       H    17.52570    4.82332  -14.68721
       O    18.10375    4.06015  -14.87530
      H1    17.74840    3.41290  -15.55864
       H    14.72282    1.44368  -13.61718
       O    14.28139    1.22202  -12.75463
      H1    13.39733    1.70485  -12.73324
       H    16.44913   -1.40248  -19.14817
       O    17.33633   -1.26354  -18.89118
      H1    17.82969   -1.90037  -19.42175
       H    14.14285    3.56535  -14.19566
       O    14.88940    3.16259  -14.64509
      H1    14.73473    3.03457  -15.57224
       H    11.87502    1.81808  -17.01509
       O    11.92375    2.58335  -16.46453
      H1    11.14402    2.79922  -15.90420
       H    15.98047    6.92419  -15.24619
       O    16.70139    6.87041  -14.60317
      H1    16.69601    7.70037  -14.06184
       H    17.71730   -1.86498  -14.98138
       O    18.16305   -2.70068  -14.65189
      H1    18.59127   -2.41804  -13.84758
       H    11.85745    9.12479  -18.60825
       O    12.67207    8.54788  -18.54153
      H1    12.37094    7.65673  -18.32874
       H    14.74545   -1.84141  -13.39906
       O    13.99211   -1.41435  -13.10198
      H1    14.10884   -0.50068  -12.76211
       H    15.39117    6.08920  -12.78190
       O    15.38862    5.37750  -12.12104
      H1    14.52030    4.95301  -12.28287
       H    14.20652   -2.94129  -18.75036
       O    14.12059   -2.37683  -19.58683
      H1    13.57607   -2.96436  -20.17036
       H    11.67153    0.91837  -13.52965
       O    11.49144    1.74459  -13.09264
      H1    11.23205    2.37883  -13.80386
       H    11.29639   -4.03214  -18.39617
       O    11.51459   -3.15129  -18.03819
      H1    11.61423   -3.33294  -17.08399
       H    18.01483    2.31542  -17.59248
       O    17.41881    2.31412  -16.81258
      H1    16.54867    2.48443  -17.21458
       H    18.21106    3.01209  -13.66817
       O    18.56467    2.37451  -13.05410
      H1    19.38679    2.13769  -13.44038

