99
frame 5 | Written by MDAnalysis XYZWriter (release 2.4.3)
       H   -13.65013   18.37368   -0.88385
       O   -14.22239   18.75017   -0.19812
      H1   -13.91234   19.66871   -0.08865
       H   -11.84764   17.09131   -2.12379
       O   -12.24061   17.10603   -1.20994
      H1   -11.49683   16.80385   -0.66358
       H   -12.46100   19.89491   -4.82662
       O   -11.63799   19.37957   -4.66184
      H1   -11.88938   18.49427   -4.95997
       H   -10.14996   16.72316   -9.38420
       O   -10.52282   17.05519  -10.25236
      H1    -9.79112   16.98599  -10.91986
       H   -13.91384   16.04524   -1.14577
       O   -14.56516   15.30040   -1.16608
      H1   -14.97261   15.25511   -2.06023
       H   -17.91109   17.90019   -6.36578
       O   -17.85756   18.83381   -6.14564
      H1   -18.75271   19.20713   -5.92409
       H   -12.87250   14.37608   -4.22292
       O   -13.10843   14.83387   -5.03736
      H1   -12.52590   14.48297   -5.71756
       H   -12.58033   18.59707    0.83864
       O   -11.80106   18.71247    1.40705
      H1   -11.69684   17.99657    2.05079
       H   -10.37464   16.03115   -3.46988
       O   -10.85891   16.85724   -3.39109
      H1   -10.12323   17.53612   -3.22461
       H   -15.48702   16.59661   -4.24752
       O   -15.58947   15.68192   -3.99845
      H1   -14.96092   15.27260   -4.64907
       H   -17.46155   18.46218    0.15058
       O   -17.11438   18.82824   -0.70168
      H1   -16.20481   18.84049   -0.49987
       H   -10.16856   16.64599   -6.70830
       O   -10.85495   16.50137   -7.39759
      H1   -11.58516   17.08389   -7.06326
       H    -8.55240   18.26514   -6.19669
       O    -8.75927   17.36337   -6.03421
      H1    -7.94561   16.93165   -6.33507
       H    -7.08543   16.50028   -2.16629
       O    -6.48798   16.45551   -1.36921
      H1    -6.08547   15.52366   -1.45069
       H    -6.76352   16.97998   -8.49134
       O    -7.06873   17.58381   -9.16006
      H1    -6.34379   18.25022   -9.12355
       H   -11.85004   12.18482   -3.35228
       O   -12.13836   13.05381   -3.15377
      H1   -12.97821   12.83264   -2.78089
       H    -8.49077   18.00377   -4.07609
       O    -8.35401   17.85551   -3.14239
      H1    -7.93992   18.67654   -2.83161
       H   -14.70655   19.24845  -11.63363
       O   -15.53102   18.89282  -12.04851
      H1   -15.99963   19.76223  -12.15368
       H   -13.88773   17.01273   -7.30853
       O   -13.49084   17.25947   -6.44198
      H1   -13.25758   16.43909   -5.96960
       H    -9.56950   13.15163   -8.54736
       O    -9.45356   12.98017   -7.57622
      H1   -10.27932   13.34146   -7.25228
       H   -18.40437   16.14899   -5.35576
       O   -17.87301   16.09139   -6.20847
      H1   -16.90660   16.03115   -5.97623
       H   -16.44270   18.79604  -10.37098
       O   -16.72765   18.65103   -9.46966
      H1   -16.84192   19.50270   -9.00276
       H   -12.57930   13.96754   -7.97391
       O   -11.95156   14.12944   -7.28567
      H1   -11.56848   15.01286   -7.41793
       H   -16.14783   18.77567   -5.13102
       O   -15.35652   18.54756   -4.62357
      H1   -14.79304   18.18665   -5.37169
       H   -17.91043   17.31953   -8.77380
       O   -18.70310   16.74819   -8.64335
      H1   -18.47835   16.41831   -7.75507
       H   -15.68182   17.36151   -8.97328
       O   -14.88472   16.81967   -9.01857
      H1   -14.70123   16.75438   -9.97676
       H   -11.80049   13.56727   -0.22232
       O   -12.72153   13.45550    0.01012
      H1   -13.29477   14.08185   -0.44268
       H    -7.60238   17.15289    0.01563
       O    -8.03553   17.22403    0.86936
      H1    -8.31483   18.14331    0.98986
       H   -10.34441   19.93015  -11.51742
       O   -10.93413   19.77417  -10.77368
      H1   -10.94093   18.84530  -10.60255
       H   -17.46916   15.94502   -1.01817
       O   -17.84626   15.09446   -1.27890
      H1   -18.68292   15.01976   -0.81183
       H   -10.34662   13.54440   -3.24078
       O    -9.45681   13.75266   -3.00037
      H1    -8.81138   13.21302   -3.54744
       H   -10.04078   14.89756    0.06320
       O   -10.33349   15.70417    0.46654
      H1    -9.49915   16.21743    0.54678
       H   -15.12076   14.95263   -7.86575
       O   -15.81925   14.55272   -7.43082
      H1   -15.43120   13.86365   -6.86050

