99
frame 5 | Written by MDAnalysis XYZWriter (release 2.4.3)
       H     2.75459   -5.33931   -6.04353
       O     2.91994   -4.55222   -6.56725
      H1     2.18359   -4.57028   -7.19714
       H     2.66739    3.36671  -10.68993
       O     3.54163    3.02774  -10.92953
      H1     3.90118    2.46858  -10.24347
       H    -0.45830   -1.94001   -5.18200
       O    -1.21124   -1.85578   -4.54444
      H1    -0.75225   -1.59432   -3.75467
       H    -0.33439    2.80872   -6.23732
       O     0.27631    2.98384   -6.95742
      H1    -0.07970    2.47922   -7.73153
       H     3.83931   -4.79835  -11.12771
       O     3.48446   -4.91670  -11.99875
      H1     2.67868   -5.40344  -11.90271
       H    -0.40387   -5.61930   -6.45837
       O    -0.41224   -5.01166   -5.71498
      H1    -0.01911   -5.49608   -4.97188
       H     0.73605   -4.67412  -11.31785
       O     0.42860   -3.96923  -10.79940
      H1     0.20873   -3.37207  -11.44341
       H     0.26962   -3.58285   -6.28159
       O     0.60515   -2.71571   -6.63512
      H1     1.16218   -2.87651   -7.45816
       H     1.03403   -7.65768  -11.77777
       O     1.15150   -6.83685  -11.30262
      H1     1.40039   -7.06486  -10.42060
       H     5.21110   -3.78535   -9.58770
       O     4.54590   -4.46802   -9.73431
      H1     3.83095   -4.20824   -9.11228
       H     3.44575   -2.63176   -4.39813
       O     2.51048   -2.54226   -4.30203
      H1     2.22227   -2.69959   -5.22742
       H     4.96145    3.47036   -7.71925
       O     4.14060    3.06104   -8.13163
      H1     3.74348    2.69021   -7.33383
       H     5.00496   -0.18593  -10.01197
       O     5.35422    0.45524  -10.67493
      H1     4.87864    0.28380  -11.48303
       H     7.11686   -5.37088   -7.46108
       O     7.05103   -4.48566   -7.06229
      H1     6.16385   -4.04810   -7.03313
       H    -1.28715   -3.14921   -7.40594
       O    -2.02793   -3.40316   -7.93276
      H1    -2.79694   -2.77556   -7.75392
       H     5.24569   -2.65611  -13.94871
       O     6.09916   -2.30915  -14.11489
      H1     6.00864   -1.51723  -14.60759
       H     7.52565   -4.06037   -8.85915
       O     7.46621   -4.24231   -9.80907
      H1     7.49773   -3.35802  -10.19317
       H     2.18852   -1.73121  -11.76597
       O     2.69594   -2.32070  -12.32193
      H1     2.49562   -3.24083  -12.15485
       H     4.18563    0.32626   -4.38383
       O     3.25283    0.60010   -4.54300
      H1     2.70506    0.16926   -3.86390
       H     0.33567   -0.98016  -10.38728
       O     1.23917   -0.74021  -10.61095
      H1     1.57832   -0.15740   -9.93794
       H     4.49225    1.87928  -13.73910
       O     3.87838    1.46627  -13.16239
      H1     3.77404    2.04786  -12.38938
       H     2.41348    1.04469   -6.27026
       O     2.11700    1.10997   -7.18566
      H1     1.52311    1.85354   -7.13583
       H     1.92954    0.61485  -13.54569
       O     1.08669    0.54719  -13.97299
      H1     0.66263   -0.17915  -13.51869
       H    -1.76189   -0.53011   -9.33648
       O    -1.56412   -1.38598   -9.78272
      H1    -1.58608   -2.13688   -9.14430
       H     4.32798   -5.15530  -13.34509
       O     4.71664   -5.21550  -14.24870
      H1     3.95408   -5.01341  -14.84287
       H     4.39241   -3.12295   -6.55999
       O     5.21083   -2.63070   -6.75896
      H1     5.50826   -2.42117   -5.88691
       H     1.19294   -2.37433  -12.91418
       O     0.20228   -2.23519  -12.95826
      H1    -0.00644   -2.99182  -13.59993
       H     0.17093   -7.26266   -7.80741
       O     0.19351   -6.31744   -7.94045
      H1    -0.48803   -6.08929   -8.56816
       H     7.43722   -0.93389  -11.11591
       O     7.48124   -1.86202  -11.44732
      H1     6.96095   -1.90775  -12.26017
       H     2.02297   -0.92010  -15.61303
       O     2.52096   -1.67277  -15.21167
      H1     2.40355   -1.68468  -14.25934
       H     4.79845   -6.41638   -9.90199
       O     4.91051   -7.37244   -9.78998
      H1     5.45343   -7.62770  -10.50038
       H     4.08432   -0.94554   -7.40764
       O     3.83171   -0.71168   -8.31550
      H1     3.21674    0.10384   -8.19108
       H     2.67268   -2.18329   -8.99812
       O     2.34048   -3.07071   -8.88337
      H1     1.77486   -3.37679   -9.58647

