99
frame 4 | Written by MDAnalysis XYZWriter (release 2.4.3)
       H    17.66590  -15.91897   -8.94075
       O    18.57943  -15.70145   -8.68160
      H1    18.88372  -16.49787   -8.26483
       H    18.63485  -16.85033  -11.48073
       O    17.89476  -16.57865  -12.09315
      H1    18.26846  -15.78551  -12.40965
       H    14.01021  -17.03604   -5.49325
       O    13.41944  -17.69351   -5.08070
      H1    12.51997  -17.32977   -5.04100
       H    11.59100  -17.74446  -16.24473
       O    12.09428  -17.80052  -15.42618
      H1    11.63391  -17.17073  -14.87852
       H    16.35572  -14.18093  -14.23947
       O    15.45984  -14.41083  -13.88933
      H1    15.27149  -15.31811  -14.08981
       H    15.49036  -15.30167   -6.39283
       O    15.58826  -16.22683   -6.11906
      H1    16.00092  -16.77208   -6.77504
       H    13.68760  -17.29765  -15.14626
       O    14.57140  -16.92043  -15.01629
      H1    14.95560  -17.54993  -14.44730
       H    17.89393  -12.51906  -15.52696
       O    17.75669  -13.35870  -15.05302
      H1    18.33195  -13.97477  -15.52817
       H    11.51033  -12.19768   -8.74916
       O    10.61629  -12.41284   -9.04634
      H1    10.56804  -13.36623   -9.00576
       H    13.22698  -11.23724   -9.90284
       O    13.24752  -10.99597   -8.92441
      H1    14.19409  -10.81366   -8.80614
       H    12.28693  -17.54319   -7.80662
       O    12.62971  -17.68760   -8.67533
      H1    12.24335  -16.90018   -9.15195
       H    14.36768  -12.58212  -12.46518
       O    14.55145  -12.36314  -11.56741
      H1    15.39535  -12.81916  -11.47557
       H    13.51156  -19.05751   -9.70635
       O    13.94348  -19.32898  -10.54237
      H1    13.16771  -19.36516  -11.14623
       H    14.09458  -13.67323   -6.23664
       O    14.85865  -13.61249   -6.82775
      H1    15.28251  -12.77231   -6.60131
       H    17.41055  -20.05092  -16.47368
       O    17.15500  -19.12494  -16.28729
      H1    17.91159  -18.93489  -15.69274
       H    10.70092  -15.46851  -10.36821
       O     9.82614  -15.15599  -10.12949
      H1     9.23368  -15.91687  -10.19638
       H    19.61379  -12.92617   -9.20123
       O    19.37521  -13.49203   -9.98408
      H1    19.11925  -14.36653   -9.64458
       H    14.21827  -13.93543   -8.42789
       O    13.99613  -14.18161   -9.35294
      H1    13.70336  -13.34164   -9.82755
       H    18.19330  -16.85074  -18.34313
       O    17.51530  -17.59867  -18.35476
      H1    17.55725  -18.00310  -17.49072
       H    11.31117  -11.59959  -10.62967
       O    11.79503  -11.13857  -11.31548
      H1    11.86745  -11.83968  -12.00660
       H    12.80605  -12.22561  -14.88163
       O    13.36759  -12.41699  -14.13003
      H1    13.92012  -13.21488  -14.28730
       H    15.92189  -15.09194   -9.67012
       O    16.23653  -15.94532   -9.91597
      H1    16.81898  -15.76773  -10.68277
       H    14.33074  -19.08694   -5.57833
       O    14.76459  -19.74801   -6.10661
      H1    14.08750  -19.83972   -6.78330
       H    10.56681  -14.64423  -14.18481
       O    10.22709  -15.51564  -14.51198
      H1    10.20759  -15.41231  -15.50635
       H    16.74007  -10.38761   -8.98909
       O    15.91036  -10.76672   -9.18563
      H1    15.93628  -10.75058  -10.15334
       H    12.02200  -14.33028  -12.07825
       O    11.42574  -13.67308  -12.45196
      H1    11.85838  -13.22458  -13.18661
       H    18.15428  -12.96498  -11.17257
       O    17.30611  -12.82345  -11.66911
      H1    17.54188  -12.98964  -12.58840
       H    15.39493  -16.62845  -11.67297
       O    14.73531  -17.21900  -12.10849
      H1    14.45331  -17.85431  -11.41278
       H    15.14214  -15.39883  -16.47420
       O    15.18416  -15.14922  -17.42262
      H1    15.44099  -15.95433  -17.88544
       H    16.40025  -11.02418  -12.08207
       O    16.23348  -10.07713  -11.81670
      H1    15.54216   -9.81858  -12.45575
       H    16.60607  -18.77080   -8.39563
       O    16.64830  -18.31477   -7.57666
      H1    16.09099  -18.80457   -7.03895
       H    17.94941  -18.53768  -11.76085
       O    18.36236  -19.33355  -11.44210
      H1    17.74310  -19.68237  -10.75129
       H    12.90834  -15.27933  -10.18543
       O    12.43156  -15.70834  -10.94107
      H1    13.10354  -16.18100  -11.51461

