99
frame 4 | Written by MDAnalysis XYZWriter (release 2.4.3)
       H    -7.20561    8.84373  -17.67394
       O    -8.08761    9.28956  -17.50475
      H1    -8.40101    8.79105  -16.77535
       H    -5.64779   10.94858  -12.25691
       O    -5.96901   11.82565  -12.26990
      H1    -6.68228   11.80635  -11.59894
       H    -3.82754   14.15542  -11.58980
       O    -4.31922   13.58568  -10.98438
      H1    -4.70768   12.90886  -11.52831
       H    -6.00649   14.56721  -15.29356
       O    -5.40076   14.70368  -16.05421
      H1    -5.49712   15.58486  -16.39349
       H    -3.87448   18.91470  -13.86305
       O    -4.66836   19.46252  -13.73355
      H1    -4.74157   19.71771  -12.78029
       H   -11.80744   14.18990  -10.65835
       O   -12.67752   13.82328  -10.31826
      H1   -13.14520   13.49083  -11.04669
       H    -3.95196   17.14898  -18.94502
       O    -4.01145   16.57384  -18.19503
      H1    -4.16615   15.68320  -18.56348
       H    -6.60663   11.83475  -16.87377
       O    -6.55684   11.30594  -16.07767
      H1    -7.17105   10.55427  -16.29175
       H   -10.25164   14.24773  -14.26680
       O   -10.63413   13.71682  -13.60660
      H1   -10.08756   12.91525  -13.74701
       H    -6.08620   17.98991  -18.90097
       O    -6.48806   18.63104  -18.30048
      H1    -6.75342   19.29033  -18.93949
       H    -6.26926   14.24509  -10.41661
       O    -7.16658   14.08886  -10.18857
      H1    -7.75845   14.65484  -10.74462
       H    -8.43684   18.13518  -12.43959
       O    -7.73142   18.22783  -11.81061
      H1    -7.15172   17.48281  -12.11596
       H   -12.62228   13.80836  -14.02040
       O   -13.49110   13.49062  -14.19341
      H1   -13.38199   13.37956  -15.13656
       H    -8.00496    9.08201  -12.22028
       O    -8.16510    9.45365  -13.14565
      H1    -9.10911    9.44988  -13.11028
       H    -4.73075    9.28965  -14.25358
       O    -4.52509   10.22713  -14.32215
      H1    -5.25475   10.65164  -14.81560
       H    -9.88510   10.76844  -15.41607
       O   -10.61871   10.11430  -15.56798
      H1   -10.54973    9.66946  -14.68512
       H    -4.55250   16.48383  -12.55012
       O    -5.49721   16.71470  -12.72342
      H1    -5.41157   17.55036  -13.25914
       H    -7.17385   18.03067  -16.45239
       O    -7.30521   17.42256  -15.71650
      H1    -8.11954   17.82880  -15.32955
       H   -12.10228   15.20674  -17.47498
       O   -11.41037   15.67548  -17.04378
      H1   -10.76456   15.06919  -16.68708
       H    -7.92752   15.79917  -16.22122
       O    -8.32366   14.92328  -15.99096
      H1    -8.02073   14.82246  -15.12874
       H    -7.63668   13.30353  -18.14667
       O    -6.64609   13.09384  -17.99166
      H1    -6.44092   13.81450  -17.33574
       H    -9.96414   16.35083  -18.41258
       O    -9.28628   16.69891  -19.07840
      H1    -9.28076   17.67751  -19.03302
       H    -3.45123   14.27399  -16.52297
       O    -2.87473   13.51369  -16.68010
      H1    -3.39173   12.82178  -17.04766
       H    -6.99867   13.65610  -13.06287
       O    -7.06267   14.47399  -13.60867
      H1    -6.40618   15.11535  -13.20005
       H   -11.99843   16.62845  -15.65724
       O   -11.95217   17.00371  -14.75195
      H1   -12.84897   17.32872  -14.60912
       H   -10.42774   18.06054  -14.33282
       O    -9.51767   18.38282  -14.32290
      H1    -9.58797   19.28186  -13.95507
       H    -2.30755   15.40557  -12.01691
       O    -3.06777   16.00627  -11.96572
      H1    -3.25257   16.19170  -11.04220
       H   -10.11148   14.53373  -11.78306
       O   -10.12288   14.48722  -10.84060
      H1   -10.27661   15.44317  -10.52994
       H    -7.92915   11.79409  -14.75472
       O    -8.77668   11.81164  -14.35528
      H1    -8.63006   11.31018  -13.53222
       H   -10.38940   13.02906  -18.66993
       O    -9.49295   12.72598  -18.70021
      H1    -9.26984   11.92618  -19.23820
       H    -8.02958   12.40525  -10.16277
       O    -8.49349   11.74817  -10.68703
      H1    -8.50972   11.02404  -10.09414
       H    -9.47894   18.80186  -16.06564
       O    -9.44462   19.48812  -16.77033
      H1    -8.90203   19.21542  -17.52260
       H    -5.79995   14.84110  -19.90792
       O    -4.99099   14.39489  -19.59048
      H1    -5.44719   13.83281  -18.94012

