99
frame 4 | Written by MDAnalysis XYZWriter (release 2.4.3)
       H    -5.17148  -17.02120   10.16022
       O    -5.18608  -16.48930    9.38533
      H1    -4.63615  -16.98578    8.80351
       H    -5.74245  -18.18281   12.40092
       O    -4.82139  -18.25890   12.00661
      H1    -4.31779  -18.52884   12.78435
       H    -4.52837  -15.77257   16.14069
       O    -4.29559  -16.32410   15.34593
      H1    -4.84142  -15.94731   14.62650
       H    -6.35373  -16.80590    5.68082
       O    -5.49441  -16.46873    5.24038
      H1    -5.91310  -15.63875    4.80963
       H     2.62079  -20.14344   13.16122
       O     2.24535  -19.26637   13.20655
      H1     2.75916  -18.75217   13.89292
       H    -6.76160  -17.91010   14.62109
       O    -7.02215  -17.99141   13.72857
      H1    -7.65696  -18.70284   13.75695
       H    -7.71341  -14.88243   12.62651
       O    -7.02531  -15.26664   13.21177
      H1    -7.21537  -16.27079   13.27475
       H     3.82075  -19.80798    7.71655
       O     3.74940  -19.08813    8.33133
      H1     3.85478  -18.23128    7.95806
       H    -1.22702  -16.21477   14.30722
       O    -1.66210  -16.86184   14.88998
      H1    -2.55660  -16.57643   14.90485
       H    -3.91572  -16.07824    6.03437
       O    -3.21559  -15.59983    6.59718
      H1    -2.56048  -15.51185    5.92674
       H    -4.06776  -15.34217    9.90655
       O    -3.77070  -14.46549   10.24042
      H1    -2.78937  -14.42228   10.19842
       H     3.14521  -16.15449    7.19235
       O     3.48261  -16.26128    8.05090
      H1     2.69023  -16.01942    8.59620
       H    -0.17199  -18.83644    7.29856
       O     0.05645  -17.87081    7.45895
      H1    -0.36059  -17.48174    8.22517
       H    -4.12850  -14.07473   11.95466
       O    -4.43550  -13.84987   12.87021
      H1    -5.23786  -14.42019   12.94741
       H    -6.56384  -19.47126    9.39081
       O    -7.01876  -18.77370    8.92385
      H1    -6.42985  -17.98566    8.86607
       H    -4.84900  -18.67415   16.63515
       O    -5.35314  -19.40627   16.97331
      H1    -4.72070  -19.92097   17.53228
       H    -3.02100  -17.40998    3.99093
       O    -2.29234  -17.52311    4.64857
      H1    -1.65731  -18.12552    4.23465
       H    -3.58433  -18.85970    7.04645
       O    -3.44629  -18.11653    7.68908
      H1    -3.11680  -17.38077    7.10864
       H    -3.88208  -14.15330    5.77644
       O    -4.20831  -13.28518    5.44333
      H1    -4.77471  -13.37323    4.64790
       H     2.73003  -18.72994   11.65274
       O     2.94305  -18.14332   10.88613
      H1     2.74350  -18.57167   10.08850
       H    -8.59654  -16.86648    5.93510
       O    -7.84253  -16.99473    6.53829
      H1    -7.97180  -16.39680    7.25475
       H    -1.09583  -14.20252   13.99877
       O    -0.39504  -14.72277   13.56305
      H1    -0.62240  -14.74518   12.64419
       H    -3.18865  -18.74728   10.93958
       O    -2.62361  -19.24072   10.28738
      H1    -2.62008  -18.82097    9.44435
       H     0.89470  -17.04608    6.26866
       O     1.41524  -16.52132    5.64000
      H1     0.93442  -15.68848    5.68444
       H     1.29066  -15.42417   10.66671
       O     0.96515  -16.13984   10.06917
      H1     1.33823  -16.91309   10.53634
       H    -8.46103  -15.05967    9.34208
       O    -7.76966  -15.17299    8.67099
      H1    -6.93345  -15.18340    9.08436
       H     0.73768  -17.97114    4.69271
       O     0.42972  -18.66775    4.13659
      H1     0.40269  -18.13107    3.30454
       H    -4.64972  -12.64252    8.92892
       O    -4.87788  -12.27368    8.03737
      H1    -4.43613  -12.83721    7.37560
       H    -2.23993  -18.30329   13.89785
       O    -2.52336  -19.19263   13.58033
      H1    -1.68823  -19.65817   13.29629
       H    -3.27608  -18.86672    5.20238
       O    -3.60266  -19.79536    5.48759
      H1    -2.79580  -20.32309    5.55183
       H     0.90942  -19.57183   14.38981
       O     0.43767  -19.49697   15.20704
      H1    -0.04465  -18.69931   15.19814
       H     3.68022  -15.07911   11.64734
       O     3.76476  -15.75712   12.39659
      H1     3.57518  -16.55845   11.88729
       H    -0.64503  -14.93677   10.58911
       O    -1.19919  -14.31564   11.07729
      H1    -0.79877  -13.44033   10.98862

