99
frame 5 | Written by MDAnalysis XYZWriter (release 2.4.3)
       H    14.60141  -13.23590    3.92303
       O    14.00378  -13.00745    3.17383
      H1    13.43697  -13.81451    3.10088
       H    16.42583  -15.11995    0.50533
       O    16.40434  -14.18131    0.20874
      H1    16.66393  -14.15928   -0.76064
       H    11.52101  -14.36134    2.26961
       O    12.02668  -14.83910    2.93773
      H1    12.18883  -15.72024    2.50089
       H    17.57210  -12.99260    0.32860
       O    18.04903  -12.11043    0.26184
      H1    18.85512  -12.27098    0.76141
       H    17.31069  -10.99412    1.41408
       O    17.28999  -10.32672    2.14889
      H1    16.35217  -10.11658    2.12155
       H    14.07154  -12.52832    1.24148
       O    14.14853  -12.32104    0.28379
      H1    14.97939  -12.74995    0.04030
       H    18.55567  -12.27363    4.26512
       O    17.78728  -11.67963    4.48276
      H1    17.59810  -11.35044    3.60239
       H    18.67485  -10.75465    7.26420
       O    18.49162  -11.60375    7.63231
      H1    18.96820  -12.25025    7.02522
       H    16.26841  -13.58959    5.90275
       O    16.04250  -13.71926    4.95411
      H1    16.69313  -13.06686    4.57057
       H    19.12079  -12.42984   11.23311
       O    18.69189  -12.88299   10.49632
      H1    19.28661  -12.66136    9.81104
       H    18.66444  -19.08661    1.90956
       O    18.74727  -19.82065    2.51741
      H1    17.95729  -20.07386    2.97622
       H    14.24600  -13.56030   10.19275
       O    14.40828  -12.81855    9.60483
      H1    13.68387  -12.65486    8.95294
       H    12.93818  -11.56619    3.79337
       O    12.51486  -10.82742    4.30890
      H1    13.11178  -10.40648    4.91287
       H    13.81066  -17.52683   -2.49822
       O    14.09682  -17.01760   -1.73760
      H1    14.09320  -17.70655   -1.04997
       H    15.54914  -13.19683    8.26090
       O    16.29609  -13.35098    7.61324
      H1    16.84922  -12.56846    7.70392
       H    16.81990  -18.46857    9.28478
       O    17.00579  -19.33411    9.61492
      H1    16.15565  -19.63672    9.98025
       H    13.66269  -14.99556    8.73160
       O    13.75672  -15.26636    7.82334
      H1    14.60691  -14.97484    7.64444
       H    17.33415  -16.62958    4.95150
       O    16.73600  -16.29523    4.31152
      H1    16.51953  -15.42080    4.60559
       H    18.82283  -18.91301    9.42070
       O    19.76126  -18.67611    9.68125
      H1    19.76443  -18.67471   10.69326
       H    14.19205  -17.11535    7.97575
       O    14.50180  -18.05823    7.92619
      H1    14.41580  -18.45097    8.81003
       H    13.52536  -16.07947   11.18757
       O    13.68237  -15.17298   10.97959
      H1    13.71472  -14.74073   11.89218
       H    11.98701  -16.78180   -0.54197
       O    12.05996  -16.13515    0.14192
      H1    11.17648  -16.05953    0.59125
       H    12.88623  -19.60452    0.50119
       O    13.72183  -19.33649    0.14155
      H1    14.19137  -19.00931    0.92587
       H    17.85916  -14.68219   10.19580
       O    17.40579  -15.51474   10.05746
      H1    17.33883  -15.82778   10.99821
       H    12.94124  -18.63257    4.25896
       O    13.07435  -19.28657    4.99720
      H1    13.36806  -18.84695    5.81357
       H    17.33055  -16.92109    0.85741
       O    16.52611  -16.53913    1.26198
      H1    16.62380  -16.39340    2.23197
       H    18.18516  -17.03998    6.67329
       O    19.03910  -17.18117    6.21144
      H1    19.10773  -18.13576    6.10561
       H    14.46700  -17.81648    2.92186
       O    15.07958  -18.45806    2.41355
      H1    15.81958  -17.89521    2.08915
       H    11.82135  -18.13491    2.43831
       O    12.30574  -17.58269    3.09807
      H1    11.68106  -17.14255    3.58847
       H    19.48075  -17.37961   -0.19184
       O    18.77693  -17.89313    0.27667
      H1    18.45256  -18.52914   -0.40466
       H    16.74159  -16.50517    8.54999
       O    16.96482  -17.21351    7.86713
      H1    16.07856  -17.56823    7.71941
       H     9.81894  -16.05521    7.14935
       O    10.53089  -16.38681    7.64777
      H1    11.32976  -15.97677    7.46675
       H    11.27392  -12.58761    7.93759
       O    12.15929  -12.21547    7.97722
      H1    12.54671  -12.28458    7.06067

