99
frame 0 | Written by MDAnalysis XYZWriter (release 2.4.3)
       H    16.63169    8.89924   -6.54252
       O    15.92452    9.33040   -7.02015
      H1    15.61573   10.04942   -6.43879
       H    16.98177   14.04467   -6.76188
       O    16.63546   14.72820   -6.17684
      H1    15.84654   14.43365   -5.77351
       H    18.11645   17.24804   -7.80619
       O    17.19490   16.94499   -7.77808
      H1    17.17563   16.18638   -7.22889
       H    14.16148   15.05807    1.64928
       O    14.05304   14.36483    0.92262
      H1    14.83985   13.86036    1.14155
       H    13.29402   19.06971   -6.71097
       O    13.77119   18.66585   -5.98863
      H1    13.05800   18.17798   -5.53270
       H    14.53896   10.88431   -3.29217
       O    14.94515   11.29538   -4.04637
      H1    14.62125   12.22303   -4.03003
       H    18.08457   15.27591   -5.25116
       O    18.87629   15.40541   -4.73831
      H1    19.41528   14.62922   -4.82205
       H    15.26269   12.24488   -8.99669
       O    15.64688   12.46048   -8.14197
      H1    15.58375   13.39501   -8.17375
       H    18.53872   10.47631   -3.96821
       O    17.75027   10.06015   -3.60095
      H1    17.02879   10.69869   -3.70700
       H    15.20490   12.18414   -0.57464
       O    15.45483   11.64423    0.15226
      H1    14.89020   10.87282    0.02175
       H    14.94584   19.19237   -3.09321
       O    14.13297   19.65646   -3.32682
      H1    13.82409   19.37838   -4.20151
       H    11.19417   16.01915   -7.41648
       O    12.14830   16.05493   -7.41414
      H1    12.34828   15.17180   -7.05895
       H    12.46797   18.50199   -0.86887
       O    12.30008   18.56744   -1.78923
      H1    13.10940   18.96895   -2.21668
       H    17.90425   10.27323   -1.66325
       O    17.42788   10.05967   -0.84981
      H1    16.75738   10.64412   -0.55628
       H    12.36976   11.34997   -2.20651
       O    12.19732   11.04965   -1.28196
      H1    11.27225   10.81179   -1.23067
       H     8.87367   16.76207   -1.06693
       O     9.80176   16.77760   -0.74350
      H1     9.71784   16.61563    0.24232
       H     8.72415   13.02929   -5.01371
       O     9.60964   12.85765   -5.41731
      H1    10.20466   13.22994   -4.73961
       H    16.50164   16.87704   -0.21569
       O    16.07825   17.44728    0.47445
      H1    16.44716   17.08816    1.28572
       H    17.16813   12.68455   -1.41842
       O    16.64005   13.27545   -1.97607
      H1    17.11136   14.16843   -1.96762
       H    14.10925   14.90148   -9.09685
       O    15.02116   15.09163   -8.87422
      H1    15.00287   15.91245   -8.44470
       H    14.08117   17.59647    0.95210
       O    13.16179   17.95137    0.97376
      H1    12.61135   17.12212    1.10097
       H    11.32038   15.25403   -4.03363
       O    11.51635   14.41466   -3.59746
      H1    11.17122   14.57185   -2.67353
       H    10.81475   13.61577   -0.01070
       O    10.26950   13.92220   -0.80796
      H1    10.37621   14.89153   -0.79024
       H    13.53315   11.54197   -6.52208
       O    12.85050   10.86127   -6.39234
      H1    12.26050   10.96432   -7.18983
       H     9.17919   16.69067   -5.81922
       O     9.19583   17.56127   -5.40659
      H1     9.45499   18.15305   -6.08012
       H    16.10107   16.68979   -4.95340
       O    15.73175   16.75073   -4.11358
      H1    15.15754   15.94261   -4.13011
       H    12.07580   17.55857   -3.48175
       O    11.79075   17.41828   -4.38135
      H1    10.81413   17.54821   -4.42159
       H    13.91032   14.19280   -3.23283
       O    14.67686   14.01635   -3.71715
      H1    15.31476   13.66263   -3.09849
       H    13.49143    8.62052   -1.61388
       O    14.28840    8.88355   -2.05859
      H1    15.08179    8.63862   -1.54996
       H    12.52350   15.40930    2.87631
       O    11.68342   15.21145    2.37813
      H1    11.85361   14.27402    2.04936
       H    12.73651   13.07087    1.11874
       O    11.85516   12.70064    1.45367
      H1    12.03938   11.97932    2.05170
       H    16.83254   16.34375   -2.55843
       O    17.52625   15.86398   -2.02273
      H1    18.27272   15.85089   -2.64913
       H    12.47404   12.69205   -5.88597
       O    12.77313   13.57370   -6.07852
      H1    12.65021   14.03727   -5.21307

