99
frame 6 | Written by MDAnalysis XYZWriter (release 2.4.3)
       H     6.90001  -17.86961   14.88801
       O     6.98164  -16.89521   14.90629
      H1     6.11097  -16.54748   14.51510
       H     7.67912  -17.98210   17.54611
       O     8.58661  -17.74076   17.86732
      H1     8.60107  -16.78505   17.75101
       H     9.02064  -13.79496   13.55650
       O     9.32653  -14.57076   14.00757
      H1     8.90539  -14.58832   14.89668
       H     0.43301  -12.07569   11.97561
       O     0.92579  -12.77457   11.56374
      H1     0.91308  -12.63435   10.59471
       H     5.41214  -16.09522   19.51302
       O     6.22260  -15.99263   19.09126
      H1     6.20676  -15.15496   18.64933
       H     5.03107  -13.66320   12.41856
       O     5.73217  -14.04793   12.92192
      H1     6.20417  -14.59636   12.29650
       H    10.15491  -16.03665   13.88937
       O    10.84366  -16.73911   13.96206
      H1    10.40798  -17.50075   13.62580
       H     5.25402  -12.51501    9.87049
       O     4.86188  -13.32713    9.52681
      H1     5.50236  -13.99284    9.75863
       H     6.91455  -17.53641   11.92112
       O     7.38853  -16.76892   12.22603
      H1     7.28320  -16.65092   13.17761
       H     4.18366  -17.47044    7.23470
       O     4.19728  -17.40150    8.23725
      H1     4.48111  -18.25876    8.56096
       H     0.02107  -17.95886    9.02036
       O    -0.88174  -17.65022    9.37250
      H1    -0.60529  -16.91106    9.89181
       H     3.67816  -19.92310   16.12494
       O     4.19110  -19.23066   15.65679
      H1     4.58009  -18.64779   16.31665
       H     7.95779  -15.98405   16.14482
       O     8.44849  -15.20508   16.41348
      H1     7.86320  -14.52549   16.79918
       H     9.27662  -17.36594    9.14534
       O     9.34460  -17.79793    9.97501
      H1     8.77119  -17.33711   10.51528
       H     2.95553  -10.04840   16.51486
       O     3.25178  -10.93203   16.22777
      H1     3.97517  -11.19463   16.75731
       H     7.52562  -11.59568   13.63025
       O     7.87762  -12.39373   13.12914
      H1     7.15302  -13.02916   13.12434
       H     2.72140  -17.93925   12.39362
       O     3.66056  -17.97589   12.26475
      H1     3.86271  -17.48630   11.48279
       H     6.12432  -17.21020   17.96078
       O     5.90099  -18.05500   17.45489
      H1     5.46651  -18.62570   18.09500
       H    -1.54017  -13.26225   13.56109
       O    -1.93409  -14.15979   13.61235
      H1    -1.85558  -14.60515   12.75646
       H     3.95057  -10.43383   11.04003
       O     3.15662  -10.31285   11.52941
      H1     3.00871  -11.29203   11.72708
       H     0.78408  -14.79459   15.41595
       O     0.20404  -15.50893   15.07618
      H1    -0.49812  -15.01755   14.54989
       H     1.64629  -17.69465   17.27881
       O     1.57254  -16.78034   17.20984
      H1     0.92211  -16.68828   16.50442
       H     3.11226  -16.01598    8.92711
       O     2.98035  -15.45286    9.68206
      H1     3.20148  -14.62135    9.29044
       H     2.50003  -13.87897   16.87380
       O     1.77505  -13.26665   16.60332
      H1     2.21670  -12.39847   16.42378
       H     6.15754  -12.81024   17.42617
       O     6.15948  -13.74282   17.16944
      H1     5.23404  -14.02088   17.01884
       H     7.12856  -15.26101    9.52385
       O     7.35889  -14.65712   10.23941
      H1     7.60236  -15.16158   11.04494
       H     3.20630  -15.74486   17.08302
       O     3.88630  -15.16361   16.75764
      H1     4.01806  -15.38152   15.82190
       H    -3.11174  -16.81210   15.13349
       O    -2.80922  -17.47476   14.46041
      H1    -1.85968  -17.44629   14.46060
       H     2.64622  -13.00346   12.00772
       O     3.62568  -13.06221   11.95544
      H1     3.86240  -13.42598   11.09448
       H     6.27800  -19.30725   13.14475
       O     6.02747  -19.37190   12.22630
      H1     5.17625  -18.87895   12.26933
       H     4.79777  -15.09478   14.03543
       O     4.64230  -16.01517   14.19971
      H1     4.06176  -16.24568   13.44107
       H     1.13976  -15.52333    9.96591
       O     0.31040  -15.18957   10.39571
      H1     0.62329  -14.40309   10.89062
       H     6.87808  -15.25668    7.38620
       O     6.68194  -15.97926    8.00545
      H1     5.74121  -16.21456    7.93141

