99
frame 6 | Written by MDAnalysis XYZWriter (release 2.4.3)
       H     8.91317   18.92766   12.55791
       O     8.59219   18.07374   12.29121
      H1     8.04857   17.74547   12.99757
       H     9.83925   16.51485    1.94217
       O     9.61575   17.15331    2.64426
      H1     8.79271   16.86283    3.06624
       H     3.51671   12.68758   13.02318
       O     4.21810   12.10162   12.76550
      H1     4.08053   11.93796   11.84717
       H     7.68735   15.68770    8.80448
       O     7.20234   14.94127    9.23384
      H1     6.55402   14.71509    8.55105
       H    11.78601   11.46133    9.10090
       O    10.92694   11.55373    9.49815
      H1    10.94901   12.42766   10.00112
       H     3.16816   18.79888    7.02753
       O     2.53141   18.11651    7.15188
      H1     1.80603   18.65615    7.61848
       H     4.18009   18.92605    9.66107
       O     5.03940   19.42351    9.56793
      H1     5.40126   19.35364   10.47096
       H     3.92998   16.40485   13.66088
       O     3.06027   16.17203   14.01474
      H1     2.60190   15.78294   13.28463
       H     5.48184   18.14533   12.49758
       O     5.44091   17.29350   12.93969
      H1     5.56562   16.53884   12.27705
       H     6.46946   16.60778   14.19857
       O     7.24462   16.12096   14.60203
      H1     7.12042   15.18087   14.39294
       H     8.98009   19.76173    9.57465
       O     8.81217   18.80943    9.58525
      H1     8.70400   18.55379   10.49456
       H     3.00475   15.16602    6.95276
       O     3.70167   15.79596    7.28536
      H1     3.30748   16.65185    7.11651
       H     9.97432   16.93461   12.36690
       O    10.64029   16.26503   11.91792
      H1    11.56642   16.44738   12.25857
       H    11.13907   17.32099   10.53838
       O    11.45863   18.02611    9.88775
      H1    10.61873   18.39593    9.56257
       H     3.98036   11.65753    6.96777
       O     3.06177   11.86858    7.12500
      H1     2.92598   11.69266    8.11462
       H    10.62540   14.51371    5.15974
       O    11.01598   13.66711    4.90209
      H1    11.72756   14.03529    4.33245
       H     8.27888   17.96544    8.06383
       O     8.08725   17.38437    7.29498
      H1     7.63780   17.95892    6.63658
       H     4.75012   13.49124   10.35983
       O     4.52339   12.63580   10.02966
      H1     4.30649   12.71556    9.12752
       H     9.39358   16.44015    6.21394
       O     9.72542   15.83763    5.49476
      H1     8.94715   15.55295    5.01387
       H     6.82278   14.58796    3.51662
       O     7.23533   15.30272    3.92885
      H1     6.94392   15.25041    4.84805
       H     2.50659   16.23506   10.86466
       O     3.20679   16.31094   10.22880
      H1     3.01728   16.16413    9.32725
       H     6.04039   11.71416   10.95599
       O     6.71933   11.00501   10.94733
      H1     7.45115   11.40320   11.37392
       H     8.75904   12.09510   13.10954
       O     8.93003   11.75924   12.17142
      H1     9.47396   10.98166   12.30789
       H     5.89906   11.57668    5.55740
       O     5.70009   11.86299    6.41071
      H1     6.19020   11.31259    7.05101
       H    11.49022   18.14368    5.14842
       O    11.33724   18.57239    4.31618
      H1    10.85593   17.92951    3.76516
       H    10.32975   11.44982    7.76860
       O     9.74445   11.56441    6.95752
      H1    10.27572   12.04596    6.34763
       H    11.82024   17.21833    7.86338
       O    11.92582   17.10220    6.88939
      H1    11.45123   16.26453    6.74191
       H     8.27213   11.28447    8.03255
       O     7.49305   10.71861    8.23512
      H1     7.27500   10.92777    9.17520
       H     6.05337   15.04225   10.82615
       O     5.33538   15.09314   11.44132
      H1     4.61290   15.42129   10.94730
       H     5.92556   13.77019    6.34387
       O     6.01927   14.74595    6.30518
      H1     5.22378   15.24209    6.53280
       H    10.47218   14.50795   11.48724
       O    10.78427   13.62212   11.45427
      H1    10.04120   13.04702   11.61045
       H     9.05225   15.91048   14.65155
       O     9.95713   15.76895   14.89196
      H1    10.42005   16.44728   14.42579
       H     6.48541   19.13822    5.31862
       O     7.35808   18.77615    5.12124
      H1     7.95915   19.52116    5.14799

