99
frame 6 | Written by MDAnalysis XYZWriter (release 2.4.3)
       H     2.55365   10.37333   -1.78925
       O     2.47719    9.67279   -2.44343
      H1     2.65349    8.79704   -2.10247
       H     3.02986   11.88771   -6.30113
       O     3.94756   12.06787   -6.47967
      H1     4.11436   12.91955   -6.98108
       H     6.30525   11.26755   -1.19660
       O     5.49652   10.72442   -1.19827
      H1     5.24401   10.65618   -2.15208
       H     2.75337    5.24448    0.01467
       O     3.06630    4.35615   -0.15558
      H1     2.44702    3.67654   -0.19663
       H     7.72764   11.65022   -5.58079
       O     8.35891   12.39401   -5.40802
      H1     7.88890   13.12212   -5.02037
       H     3.79944    5.76317   -5.32755
       O     3.36344    6.59778   -5.35716
      H1     3.15162    6.70134   -6.29641
       H    11.18030    7.99754   -3.19323
       O    11.49039    8.31675   -2.35615
      H1    10.82820    8.01368   -1.71340
       H     2.79991   12.55820   -0.48935
       O     3.01450   11.65609   -0.60843
      H1     3.97771   11.64634   -0.81205
       H    10.16709   10.73448   -3.15863
       O     9.42914   10.29728   -3.73403
      H1     9.11605   11.06644   -4.20334
       H     6.18096    2.90194    0.43378
       O     6.56062    3.55619   -0.19195
      H1     5.79880    3.98619   -0.51441
       H     4.58915    4.46554   -3.38968
       O     4.41543    4.18258   -4.28801
      H1     3.59010    3.67595   -4.22584
       H     8.76147    9.69125    0.94971
       O     9.57298    9.78388    0.38454
      H1     9.57579    8.92410   -0.08182
       H     5.35239    4.08572   -7.43985
       O     4.47729    3.88216   -7.75836
      H1     4.06247    3.12362   -7.33344
       H     2.45703    7.10593   -0.61975
       O     2.94808    7.15246   -1.47894
      H1     2.37764    6.71953   -2.17877
       H    11.18611   11.16965   -1.06763
       O    11.46035   10.95380   -1.97555
      H1    11.50996    9.95825   -2.02214
       H     4.85402    8.36714    0.17494
       O     5.78253    8.45365    0.18262
      H1     5.99138    9.37532    0.00762
       H     8.54539    7.55074   -1.51126
       O     9.28119    7.29572   -0.96121
      H1     8.91284    6.59934   -0.36810
       H     4.29569   11.65502   -4.00000
       O     4.51801   10.76811   -3.68851
      H1     3.61929   10.55037   -3.34824
       H     6.73292    3.85218   -6.01634
       O     6.88617    4.57646   -6.60764
      H1     7.81204    4.56601   -6.86504
       H     9.40676    8.00786   -7.58849
       O     8.89391    8.66767   -8.07668
      H1     8.08727    8.10627   -8.10320
       H     9.40387    5.64811   -6.22315
       O     9.28185    5.57786   -7.18502
      H1    10.19534    5.56834   -7.42552
       H     6.34615    6.27071   -7.58654
       O     6.42461    6.78357   -8.37513
      H1     5.80554    7.56088   -8.30158
       H     6.38819    9.72349   -6.42128
       O     6.36358   10.68258   -6.48463
      H1     5.36187   10.89457   -6.40769
       H     8.52487   10.76682   -2.24766
       O     8.31492   11.29069   -1.41690
      H1     8.71815   10.80145   -0.71456
       H     2.12668    6.23556   -4.24706
       O     1.51967    6.04545   -3.50965
      H1     0.68674    6.21657   -3.96321
       H     4.99355    9.17514   -9.44305
       O     4.69911    8.91044   -8.55330
      H1     4.00489    8.24283   -8.74657
       H     4.82294    7.86330   -5.12113
       O     5.61232    8.43393   -4.85211
      H1     5.31491    9.27048   -4.57860
       H     4.48232    5.69997   -1.28629
       O     5.26807    5.46035   -1.87127
      H1     5.77855    6.25542   -1.94146
       H     6.21754    8.21589   -1.70154
       O     6.72826    7.83592   -2.44962
      H1     6.43780    8.09233   -3.30933
       H     7.88239    2.07177   -5.24337
       O     7.81262    2.51448   -4.39449
      H1     8.40210    3.22318   -4.39464
       H     9.52694    7.48607   -5.05409
       O    10.11439    8.17093   -5.40454
      H1    10.03089    8.97778   -4.96060
       H     8.10505    4.81518    0.27167
       O     8.36898    5.56430    0.82131
      H1     9.22316    5.36252    1.21838
       H     8.99925    5.59995   -3.17370
       O     8.80775    5.93725   -4.07337
      H1     7.92877    6.35181   -4.02219

