99
frame 6 | Written by MDAnalysis XYZWriter (release 2.4.3)
       H    17.95361   15.23725    2.17351
       O    17.41682   15.62868    1.51463
      H1    16.96350   14.93601    0.99270
       H    16.20783   12.27317    4.17347
       O    16.48408   12.63832    3.32494
      H1    16.71230   11.88457    2.81615
       H    13.61400   19.89183   11.48840
       O    13.70277   19.69550   12.42881
      H1    13.59766   18.75893   12.50020
       H    14.36139   16.38394    2.69728
       O    14.66118   15.52695    2.31398
      H1    15.61831   15.58748    2.37019
       H    17.47710   18.87064   12.39216
       O    17.90357   18.01238   12.35907
      H1    18.85192   18.12681   12.44729
       H    14.08729   18.41109   -0.38390
       O    14.84902   18.62882   -0.95856
      H1    14.86288   18.02049   -1.64083
       H    14.42574   16.99929    8.74221
       O    14.33524   16.85817    9.70742
      H1    15.21753   16.46191    9.80766
       H     8.98009   19.76173    9.57465
       O     8.81217   18.80943    9.58525
      H1     8.70400   18.55379   10.49456
       H    13.27994   18.10927    4.12879
       O    14.17198   18.06423    3.65199
      H1    14.74653   18.73615    4.10508
       H    18.41336   15.99158    0.08152
       O    18.90544   16.39877   -0.64733
      H1    18.60019   17.32197   -0.57716
       H     9.97432   16.93461   12.36690
       O    10.64029   16.26503   11.91792
      H1    11.56642   16.44738   12.25857
       H    11.13907   17.32099   10.53838
       O    11.45863   18.02611    9.88775
      H1    10.61873   18.39593    9.56257
       H    16.63580   14.63375    9.06410
       O    16.67250   15.47471    9.53624
      H1    16.97714   15.16772   10.44886
       H    17.55537   10.94312    5.34715
       O    17.80024   11.74072    5.87079
      H1    18.74691   11.60729    6.07281
       H    14.26696   17.79824    6.59517
       O    14.89306   17.17661    6.91528
      H1    15.78424   17.62381    6.77635
       H    17.79935   17.46371    3.16533
       O    17.47447   18.14707    3.72347
      H1    16.51229   18.18376    3.40458
       H    16.66099   11.89429    9.24776
       O    16.20053   12.35768    8.53481
      H1    16.84650   12.26202    7.82915
       H    14.54607   13.30257    6.21747
       O    14.30373   12.55948    5.69115
      H1    13.74116   12.02013    6.23413
       H    12.74470   19.30800    9.93275
       O    13.64198   19.72902    9.78285
      H1    14.11403   18.92621    9.81881
       H    17.21398   19.87158    7.50195
       O    17.20275   19.30753    6.74326
      H1    17.45419   19.89157    6.00133
       H    18.69204   19.75196   15.42901
       O    19.62730   19.99835   15.69421
      H1    20.05517   19.21239   15.98446
       H    11.71106   19.18924    1.08536
       O    12.56049   18.76029    0.90119
      H1    13.11450   18.91095    1.60807
       H    11.49022   18.14368    5.14842
       O    11.33724   18.57239    4.31618
      H1    10.85593   17.92951    3.76516
       H    15.63810   14.66990   13.18840
       O    14.88908   14.68707   13.82925
      H1    14.31766   13.92469   13.54193
       H    11.82024   17.21833    7.86338
       O    11.92582   17.10220    6.88939
      H1    11.45123   16.26453    6.74191
       H    18.49177   14.69185    5.01051
       O    18.34813   14.56177    4.09842
      H1    17.70444   13.81192    4.12869
       H    17.51110   16.90797    8.79657
       O    18.22048   17.45360    8.29156
      H1    17.77041   18.22227    7.76075
       H    13.88496   16.08715   13.12370
       O    13.44238   16.78670   12.55165
      H1    13.72704   16.54306   11.67587
       H    15.75848   15.54509    6.75592
       O    16.17786   14.67187    6.72439
      H1    16.56955   14.61958    5.82677
       H    16.83412   18.85600   -0.70959
       O    17.75140   19.13194   -0.79447
      H1    17.93827   19.27896   -1.72210
       H    13.41809   13.86203    2.64654
       O    12.89264   13.10296    2.34014
      H1    13.21823   12.30206    2.78676
       H    17.06192   16.01249   12.77850
       O    17.07075   15.13887   12.43393
      H1    17.67981   14.63544   13.03547
       H    10.85301   19.07803   13.50531
       O    10.84345   19.79433   12.83094
      H1    11.76251   20.10752   12.76886

