99
frame 6 | Written by MDAnalysis XYZWriter (release 2.4.3)
       H    17.95361   15.23725    2.17351
       O    17.41682   15.62868    1.51463
      H1    16.96350   14.93601    0.99270
       H    17.27018    6.55516   10.91008
       O    16.40522    6.60317   10.52058
      H1    15.97653    5.88206   10.94690
       H    19.20095    6.64898    9.89239
       O    19.17816    6.28111   10.77820
      H1    19.46474    5.33851   10.75290
       H    16.20783   12.27317    4.17347
       O    16.48408   12.63832    3.32494
      H1    16.71230   11.88457    2.81615
       H    18.52123   11.37317   11.60708
       O    19.12477   11.65097   12.38375
      H1    19.20979   10.79669   12.90217
       H    15.79634   13.11879    1.53350
       O    16.25199   13.29012    0.69144
      H1    15.49439   13.13498    0.04335
       H    19.13361    7.70332    8.08886
       O    18.95004    6.80031    7.99561
      H1    18.78582    6.67999    7.02293
       H    11.78601   11.46133    9.10090
       O    10.92694   11.55373    9.49815
      H1    10.94901   12.42766   10.00112
       H    14.42574   16.99929    8.74221
       O    14.33524   16.85817    9.70742
      H1    15.21753   16.46191    9.80766
       H    14.33520    9.96467    9.52931
       O    14.91929    9.42310   10.15960
      H1    15.26110    8.67804    9.57613
       H    13.51011   10.21896   11.55476
       O    13.11915   10.28667   12.43713
      H1    12.22505    9.84332   12.31941
       H    18.69561    9.68690    1.53438
       O    18.74223    9.66421    2.48430
      H1    19.32092    8.94491    2.72235
       H    17.18538    9.72193    3.42291
       O    16.47330    9.77447    4.05972
      H1    16.21393    8.84029    4.14614
       H    16.63580   14.63375    9.06410
       O    16.67250   15.47471    9.53624
      H1    16.97714   15.16772   10.44886
       H    17.55537   10.94312    5.34715
       O    17.80024   11.74072    5.87079
      H1    18.74691   11.60729    6.07281
       H    16.03825    6.92712    6.32317
       O    16.16215    7.11607    5.34598
      H1    15.38948    6.76593    4.83902
       H    14.26696   17.79824    6.59517
       O    14.89306   17.17661    6.91528
      H1    15.78424   17.62381    6.77635
       H    10.62540   14.51371    5.15974
       O    11.01598   13.66711    4.90209
      H1    11.72756   14.03529    4.33245
       H    16.66099   11.89429    9.24776
       O    16.20053   12.35768    8.53481
      H1    16.84650   12.26202    7.82915
       H    14.54607   13.30257    6.21747
       O    14.30373   12.55948    5.69115
      H1    13.74116   12.02013    6.23413
       H    19.23907   14.17498   14.14334
       O    18.69644   13.46789   14.56236
      H1    18.90916   12.74573   13.92528
       H    14.34531   11.81214    8.75973
       O    13.65308   11.17734    8.44778
      H1    14.19623   10.70982    7.82037
       H    13.81439    8.89357    6.26497
       O    14.57008    9.34036    6.72779
      H1    15.30256    9.24493    6.09410
       H    15.63810   14.66990   13.18840
       O    14.88908   14.68707   13.82925
      H1    14.31766   13.92469   13.54193
       H    17.87784   10.54779    9.71380
       O    17.31541   10.88117   10.49284
      H1    16.54689   10.35661   10.45706
       H    18.49177   14.69185    5.01051
       O    18.34813   14.56177    4.09842
      H1    17.70444   13.81192    4.12869
       H    17.51110   16.90797    8.79657
       O    18.22048   17.45360    8.29156
      H1    17.77041   18.22227    7.76075
       H    15.75848   15.54509    6.75592
       O    16.17786   14.67187    6.72439
      H1    16.56955   14.61958    5.82677
       H    14.29493    8.50442   12.68481
       O    15.01648    7.84268   12.59869
      H1    15.39113    8.01300   11.72191
       H    14.76917    6.52269    8.04634
       O    15.67317    6.24731    7.84538
      H1    16.03740    6.02406    8.70509
       H    14.68366   10.50702    3.36145
       O    13.80677   10.85582    3.54923
      H1    14.05896   11.71328    3.99671
       H    13.41809   13.86203    2.64654
       O    12.89264   13.10296    2.34014
      H1    13.21823   12.30206    2.78676
       H    17.06192   16.01249   12.77850
       O    17.07075   15.13887   12.43393
      H1    17.67981   14.63544   13.03547

