99
frame 6 | Written by MDAnalysis XYZWriter (release 2.4.3)
       H    13.29515    5.32416   15.58673
       O    12.55099    4.78150   15.36119
      H1    11.85367    5.29042   15.10565
       H    10.19808    6.78749   18.44302
       O    10.60246    6.14176   18.95471
      H1    10.63965    5.32832   18.45537
       H     8.33031    8.13509   11.98071
       O     8.71168    7.64264   11.27740
      H1     8.32944    8.14984   10.56502
       H    17.27018    6.55516   10.91008
       O    16.40522    6.60317   10.52058
      H1    15.97653    5.88206   10.94690
       H    10.62519    8.59189   17.58669
       O     9.69493    8.28420   17.61261
      H1     9.27675    8.74466   18.33544
       H    11.42771    3.46857   16.97160
       O    10.48848    3.55165   17.26796
      H1    10.36401    2.77798   17.85465
       H    10.01747    8.90783   11.32306
       O    10.54618    9.72228   11.46550
      H1    10.58087   10.27332   10.64824
       H    10.92482    2.50900   14.03432
       O    11.46304    1.69237   14.13326
      H1    12.14722    1.69044   13.49387
       H    11.78601   11.46133    9.10090
       O    10.92694   11.55373    9.49815
      H1    10.94901   12.42766   10.00112
       H    14.33520    9.96467    9.52931
       O    14.91929    9.42310   10.15960
      H1    15.26110    8.67804    9.57613
       H    12.43436    8.09199   14.63426
       O    11.88969    7.99749   13.87534
      H1    11.04480    8.20287   14.26264
       H    13.51011   10.21896   11.55476
       O    13.11915   10.28667   12.43713
      H1    12.22505    9.84332   12.31941
       H    10.56766   14.08349   15.07708
       O    11.08845   13.26967   15.32349
      H1    11.76955   13.20071   14.61883
       H     9.59828    7.97519   15.92846
       O     9.33694    8.01669   14.96960
      H1     8.91732    7.19141   14.63565
       H    15.11862    6.90896   18.76065
       O    15.92246    7.13043   18.35507
      H1    15.52125    7.65282   17.65937
       H     9.17482   12.75330   15.05083
       O     8.44292   12.99235   14.53452
      H1     7.63647   12.65353   14.95438
       H    14.17909   11.27859   15.53902
       O    13.61417   10.47664   15.58050
      H1    13.45608   10.30581   14.65594
       H     8.80462    5.32923   13.99383
       O     8.10191    5.97037   13.83298
      H1     7.22557    5.67179   13.99587
       H    11.44985    5.62937   10.34120
       O    11.04800    6.36150    9.79472
      H1    10.45403    6.74168   10.42828
       H     8.75904   12.09510   13.10954
       O     8.93003   11.75924   12.17142
      H1     9.47396   10.98166   12.30789
       H    12.08767    6.46433    8.47259
       O    12.66119    6.41993    7.68154
      H1    12.55109    5.47518    7.46487
       H    14.45751    5.92212   12.37282
       O    14.60390    5.03053   12.06549
      H1    15.27403    4.53630   12.61669
       H    10.53009    4.18847   12.83791
       O     9.99586    3.93063   13.64893
      H1     9.17787    3.48526   13.36515
       H    14.23522    1.85607   16.31695
       O    13.93550    2.47739   16.96480
      H1    13.40426    3.06221   16.44380
       H    14.29493    8.50442   12.68481
       O    15.01648    7.84268   12.59869
      H1    15.39113    8.01300   11.72191
       H    11.54443    3.89800   11.10581
       O    11.61512    4.63496   11.69311
      H1    12.58136    4.65794   11.86363
       H    16.74536    4.95430   15.38344
       O    16.46659    5.62666   15.99879
      H1    16.06004    5.28738   16.76184
       H     6.48959    9.23398   13.82819
       O     6.51136    9.13777   12.87952
      H1     6.34547   10.00771   12.48650
       H    12.02554   13.28339   12.65259
       O    12.67785   12.84598   13.20627
      H1    12.59465   11.95230   12.91622
       H    14.77319    7.20729   15.70232
       O    14.06753    7.78707   15.99499
      H1    14.12634    8.62978   15.62784
       H     8.14149    9.42771   15.00223
       O     7.32216    9.79574   15.41811
      H1     7.35476    9.36340   16.26145
       H    12.70495    9.58546   17.34297
       O    12.13649    9.29842   18.04773
      H1    12.63668    8.53384   18.35377
       H     7.32465    5.47634   10.33082
       O     7.69307    4.86404   10.99897
      H1     7.97107    5.49267   11.65599

