99
frame 6 | Written by MDAnalysis XYZWriter (release 2.4.3)
       H    13.31374   -5.96390    3.97071
       O    13.73434   -5.90789    4.79793
      H1    14.59716   -6.39589    4.67065
       H    13.57818   -6.13211   10.27213
       O    13.22567   -6.10719    9.36386
      H1    13.44253   -5.29163    8.88954
       H    10.04401   -3.78204    5.08791
       O    10.83188   -3.27796    4.80842
      H1    11.26149   -3.64124    4.03365
       H    11.31968   -2.55688    6.39665
       O    11.52042   -2.35127    7.38616
      H1    12.25967   -1.78194    7.35247
       H    14.32131    2.84130    5.50795
       O    13.85530    2.40106    4.74979
      H1    13.35224    1.67516    5.10968
       H    19.84375   -4.19734    6.79605
       O    19.32296   -3.33573    6.68805
      H1    18.53386   -3.49332    7.23986
       H     9.73567   -1.68226    4.14900
       O     9.46375   -0.81115    3.78751
      H1     8.52096   -0.86714    3.49510
       H    14.56802   -1.28669    8.17116
       O    15.05306   -1.57552    8.96772
      H1    15.65363   -2.26696    8.55941
       H    17.25614   -7.66622    3.30718
       O    16.32997   -7.89049    3.61533
      H1    16.36892   -8.20213    4.51616
       H    12.32288   -5.74136    0.37570
       O    12.91029   -4.99891    0.50929
      H1    13.72432   -5.40980    0.82032
       H    14.23868   -4.14332    4.43364
       O    14.50575   -3.21383    4.63051
      H1    15.43548   -3.25820    4.33031
       H    14.54371    0.20036    0.44122
       O    14.39903    0.71051   -0.37103
      H1    14.95963    1.48498   -0.30014
       H    15.96379    2.63430    3.33131
       O    16.56692    2.05714    2.86369
      H1    16.10713    1.28105    2.51919
       H    10.30359   -1.70320    2.03949
       O    10.34613   -2.26112    1.21804
      H1    10.47886   -3.17044    1.48560
       H    17.10073   -1.67926    5.13193
       O    17.48314   -2.48183    4.75079
      H1    18.16412   -2.74655    5.40333
       H    13.42170    0.27818    7.50749
       O    13.62303   -0.45439    6.87940
      H1    14.33657   -0.13405    6.31970
       H    16.67301   -4.40243    8.24313
       O    17.18715   -3.62706    8.50113
      H1    17.73360   -3.74955    9.30381
       H    16.46481   -3.25239    0.45543
       O    15.66816   -2.96367    0.91503
      H1    15.03615   -2.99593    0.13295
       H    18.71176   -0.08320    7.24859
       O    17.95189    0.44854    7.08550
      H1    18.31161    1.31035    6.80772
       H    20.12574   -3.59737    3.31868
       O    19.32101   -3.66313    2.75609
      H1    18.61327   -3.17029    3.20207
       H    13.35383   -3.47354    7.68612
       O    13.92498   -4.14195    7.27820
      H1    13.97531   -4.00199    6.32191
       H    12.01604   -4.89091    1.88115
       O    11.16632   -4.75409    2.46906
      H1    10.69364   -5.59489    2.24595
       H    13.28432   -1.97729    3.55698
       O    12.74837   -1.56074    2.89137
      H1    12.42113   -0.83130    3.41261
       H    11.16415   -6.86919    6.91480
       O    11.75191   -7.29755    6.27293
      H1    12.42653   -6.69677    6.05384
       H    15.96423   -6.48360    0.89273
       O    15.33681   -5.95062    1.31858
      H1    15.66448   -5.03757    1.23202
       H    15.31891   -1.53019    1.59390
       O    14.95816   -0.66826    1.89513
      H1    14.19621   -0.91538    2.38710
       H    19.16537   -6.99414    2.56783
       O    18.69518   -6.48472    3.20303
      H1    18.74306   -5.53347    3.01250
       H    18.52011   -2.90658   -0.14234
       O    18.26639   -3.76867    0.22597
      H1    18.42871   -3.69168    1.22128
       H    16.50996    0.40474    6.00826
       O    15.80056    0.13356    5.45144
      H1    16.04871    0.75209    4.74046
       H    13.00938   -7.76461    2.23405
       O    12.23247   -7.65762    2.81429
      H1    12.10914   -8.62039    2.98725
       H    10.96465   -4.16352    7.98325
       O    10.53399   -5.08097    7.97807
      H1    10.55190   -5.36505    8.89365
       H    15.53381   -8.51533    7.37751
       O    16.13425   -8.58878    6.69007
      H1    17.00884   -8.34093    7.05047
       H    10.79109    0.25210    3.92049
       O    11.58944    0.77087    3.89020
      H1    11.61461    1.21247    3.02708

