99
frame 7 | Written by MDAnalysis XYZWriter (release 2.4.3)
       H   -18.03993   -0.46606   -9.42670
       O   -17.26307    0.00968   -9.58654
      H1   -17.32211    0.82654   -9.09880
       H   -13.16753    2.66713   -6.87932
       O   -12.85839    2.21823   -6.04189
      H1   -11.98063    1.90254   -6.39983
       H   -11.08577   -0.51897  -10.75667
       O   -10.64999    0.30562  -10.70609
      H1   -10.60964    0.60394  -11.61969
       H   -16.74195   -5.11309   -7.74227
       O   -17.39835   -5.41173   -7.08554
      H1   -17.31417   -4.94357   -6.25010
       H   -16.00407   -0.56290  -11.67278
       O   -15.21451   -0.98494  -11.35708
      H1   -15.04455   -1.63283  -12.08041
       H    -7.64366   -0.77100   -8.22139
       O    -7.44769   -1.70557   -8.45491
      H1    -7.67665   -1.74735   -9.40564
       H   -11.93256   -4.61248  -11.62988
       O   -12.43789   -4.87009  -10.82805
      H1   -12.76168   -4.03726  -10.49025
       H   -13.55684   -4.12521   -4.51949
       O   -14.49648   -3.80970   -4.37384
      H1   -15.00147   -4.64986   -4.31396
       H   -15.10950   -1.49813   -8.21677
       O   -15.43414   -2.14230   -8.88803
      H1   -15.62601   -1.57765   -9.62681
       H   -15.35826   -2.32935   -4.96205
       O   -15.71929   -1.42200   -4.98683
      H1   -15.23535   -0.82582   -4.45683
       H   -14.95083    0.88529  -10.97512
       O   -14.86213    1.84399  -11.04383
      H1   -15.53859    2.41517  -10.55882
       H   -15.39930   -5.04789   -9.48615
       O   -16.25921   -4.71134   -9.20082
      H1   -16.18856   -3.72375   -9.15661
       H   -13.32000    1.61972  -10.19812
       O   -12.62375    1.90559   -9.53174
      H1   -11.79987    1.44865   -9.74540
       H   -13.03605   -8.44038   -9.83283
       O   -13.08287   -7.47068   -9.79677
      H1   -12.26334   -7.23167  -10.27170
       H    -8.49202   -6.46404   -8.31172
       O    -8.63274   -6.46410   -7.34769
      H1    -7.82929   -6.90442   -6.94231
       H   -13.28805   -2.76888  -13.97754
       O   -12.41729   -2.36251  -13.89648
      H1   -12.49042   -1.40455  -13.96625
       H    -7.19440    0.52180  -11.09392
       O    -7.63144   -0.33252  -11.05248
      H1    -8.55238   -0.05157  -10.98000
       H   -14.56113   -7.10511   -7.96175
       O   -15.16620   -7.46384   -7.30155
      H1   -15.96675   -6.86887   -7.26996
       H   -13.08793   -0.05171   -3.88561
       O   -13.93380    0.42875   -3.79630
      H1   -13.94078    1.02890   -4.49929
       H    -9.43813    3.02711  -10.53983
       O    -9.14378    3.02056   -9.62843
      H1    -9.23535    2.11022   -9.31433
       H   -11.45627   -3.64596  -13.25255
       O   -10.80715   -4.31689  -13.08634
      H1   -11.04616   -5.08048  -13.61515
       H   -12.34258   -5.20254   -8.68753
       O   -12.45938   -5.16631   -7.73053
      H1   -12.06151   -5.95178   -7.39223
       H   -16.31024    2.41141   -6.70696
       O   -16.67387    1.64091   -7.20753
      H1   -15.86696    1.20390   -7.56184
       H   -11.64259   -4.11323   -4.89836
       O   -11.97232   -4.67239   -4.16071
      H1   -11.73872   -4.11665   -3.36795
       H   -13.47803    0.71009   -8.48039
       O   -13.91917    0.11625   -7.89364
      H1   -13.60740    0.47358   -7.05559
       H    -9.86335   -1.39653   -4.89404
       O    -9.01894   -1.49168   -5.35234
      H1    -9.06110   -2.37877   -5.69195
       H   -12.22760   -2.22661   -8.57045
       O   -12.49575   -2.15981   -9.51719
      H1   -13.35688   -1.68005   -9.34677
       H    -9.17334   -4.50307   -7.07398
       O    -8.95693   -3.56201   -6.96331
      H1    -8.51180   -3.06810   -7.67376
       H    -9.13919   -4.10744  -12.51535
       O    -8.19338   -4.18179  -12.60583
      H1    -7.93874   -4.56400  -13.47437
       H   -11.33784   -0.01173   -3.15087
       O   -11.38191   -0.86204   -3.61308
      H1   -11.61589   -1.60137   -3.04743
       H   -10.57108    0.53582   -7.67614
       O   -10.48895    1.34377   -7.17537
      H1   -10.15722    1.07575   -6.34845
       H   -12.19136   -3.44328   -6.80576
       O   -11.51554   -2.87334   -6.38543
      H1   -10.65314   -3.23723   -6.58232
       H   -13.79975   -5.84905  -13.57979
       O   -14.59922   -5.36055  -13.43564
      H1   -14.72884   -5.52706  -12.49052

