99
frame 7 | Written by MDAnalysis XYZWriter (release 2.4.3)
       H    -0.50657  -16.39718    2.55356
       O     0.44237  -16.68855    2.36351
      H1     0.95501  -15.82485    2.30492
       H     1.83337  -13.51038    7.94322
       O     2.27698  -13.01918    8.66403
      H1     2.61557  -12.15863    8.27338
       H     1.95929  -14.29741    1.21993
       O     2.14469  -14.33470    2.12181
      H1     2.99225  -14.81114    2.11918
       H     0.65355  -12.11368   11.38107
       O     0.89747  -13.02758   11.16045
      H1     1.21756  -13.00526   10.26301
       H     4.59810  -18.50585    5.22551
       O     4.80818  -19.23964    4.63560
      H1     4.34361  -19.06925    3.77888
       H    -0.04255  -13.37078    5.36353
       O     0.64614  -13.11428    6.01583
      H1     1.39218  -12.91061    5.45383
       H     4.79671  -16.25227    1.59832
       O     4.60752  -15.46142    2.17053
      H1     4.90722  -14.61752    1.78121
       H    -1.95514  -16.85337    7.56640
       O    -1.90909  -16.18075    6.85071
      H1    -2.16995  -16.59803    6.02132
       H    -4.13705  -15.68190   10.43110
       O    -3.71127  -15.71862   11.24478
      H1    -2.88380  -16.22925   11.20411
       H     4.23561  -17.34270    7.66974
       O     4.83981  -17.41018    8.43145
      H1     4.82879  -18.36408    8.69339
       H    -0.82662  -18.79142    9.28643
       O    -1.53086  -18.08479    9.36201
      H1    -1.02211  -17.44758    9.89014
       H    -2.32914  -17.10450    3.97398
       O    -2.50613  -17.80644    4.60182
      H1    -1.72531  -18.32487    4.58089
       H    -4.54951  -18.95870    7.69950
       O    -4.37411  -18.47876    8.55359
      H1    -3.43343  -18.42567    8.76576
       H     0.03386  -10.70018    8.57976
       O    -0.48589  -11.27050    8.02640
      H1    -0.02360  -11.77662    7.36806
       H     3.45102  -16.25662    5.63609
       O     3.33043  -17.06306    6.18977
      H1     2.37236  -17.05862    6.38866
       H     5.69267  -12.06555    6.23155
       O     4.87640  -12.49301    6.61589
      H1     4.98922  -12.42976    7.57955
       H    -4.19311  -15.36220    6.46709
       O    -4.00965  -14.50733    6.05191
      H1    -4.76002  -14.47753    5.44002
       H     2.83689  -17.94425   12.58424
       O     3.20917  -17.14084   12.16890
      H1     2.77714  -16.89401   11.29706
       H    -2.39771  -15.78501    1.86396
       O    -2.25218  -15.76510    2.79769
      H1    -1.90913  -14.91720    3.10040
       H    -0.22424  -16.19742    6.56051
       O     0.70407  -16.09611    6.33418
      H1     0.99414  -15.21564    6.11764
       H    -3.67866  -18.92002    3.48532
       O    -4.36446  -19.28484    2.96178
      H1    -4.99344  -18.54875    2.90164
       H     0.31858   -9.57004    5.94936
       O     1.18788   -9.82032    5.49951
      H1     1.74293  -10.13130    6.22686
       H     3.64413  -11.18210    6.85499
       O     2.85810  -10.86924    7.35163
      H1     3.08224  -10.04955    7.79537
       H     5.13575  -14.50282    5.00459
       O     4.33157  -14.94198    4.71890
      H1     4.46264  -15.15180    3.77621
       H     3.35918  -16.38694    9.27367
       O     2.78262  -15.81973    9.79613
      H1     2.73322  -14.96363    9.29844
       H     0.35705  -10.66961    4.02318
       O     0.31240  -11.39270    3.33589
      H1    -0.47936  -11.17190    2.85440
       H     3.41322  -13.26978    4.59768
       O     3.10624  -12.55643    4.03106
      H1     2.53153  -12.93243    3.31456
       H     1.58415  -17.50356    0.80021
       O     2.36275  -17.29308    0.14520
      H1     2.71327  -18.17792   -0.05231
       H     0.37687  -17.56012    5.17926
       O     0.22411  -18.30972    4.63272
      H1     0.61527  -18.01371    3.82942
       H    -1.62515  -12.84678    4.84237
       O    -1.59840  -13.82989    4.68498
      H1    -2.03736  -14.16882    5.51097
       H    -4.22489  -18.68037    5.77367
       O    -4.26930  -19.55210    6.11959
      H1    -3.35414  -19.77138    6.20755
       H     0.49454  -15.70884   10.77124
       O    -0.38079  -16.03502   11.05073
      H1    -0.84781  -15.28532   11.41288
       H     7.05774  -15.69014    6.41119
       O     7.21952  -16.31822    7.14041
      H1     6.39813  -16.68961    7.45098

