99
frame 7 | Written by MDAnalysis XYZWriter (release 2.4.3)
       H     8.09429    9.80660   10.84378
       O     8.54030    8.99113   10.55033
      H1     8.01074    8.82285    9.74622
       H     4.72393   11.91938   14.86016
       O     5.48724   11.57801   15.37529
      H1     5.91539   10.84233   14.92572
       H     3.32295   13.78906   14.50433
       O     3.51098   12.91348   14.24637
      H1     3.93733   13.00074   13.38460
       H     7.79844   15.83642    8.30931
       O     7.44446   14.96581    8.04328
      H1     6.80510   15.24916    7.37947
       H     3.51976   17.24631   12.46573
       O     2.57351   17.43178   12.70439
      H1     2.05233   16.98003   12.02738
       H     6.76441   16.74554   12.51926
       O     5.87480   16.42832   12.45991
      H1     5.83092   16.09267   11.56532
       H     1.57106    9.37035    5.36951
       O     2.15034    9.45779    6.13466
      H1     2.15570   10.39132    6.34755
       H     6.57469   15.01302   14.03015
       O     7.52592   15.19342   14.37242
      H1     7.77440   14.30254   14.64399
       H     2.49824   15.89765    6.44420
       O     3.11271   16.42791    6.95857
      H1     3.07149   17.32341    6.64256
       H     3.69272   12.06329    7.16954
       O     2.74346   12.06589    7.35748
      H1     2.83099   11.76250    8.31641
       H    -1.14414   11.41884    9.90930
       O    -0.54921   12.15548   10.04527
      H1    -0.74960   12.74304    9.26255
       H     1.48212   13.96182    5.34708
       O     1.48243   14.18692    6.27567
      H1     1.92336   13.39143    6.64858
       H     7.97345    8.26093    7.34762
       O     7.40589    8.54212    8.08369
      H1     7.27600    9.49039    8.12384
       H     2.43841    9.48425   15.20081
       O     2.28646    8.76431   15.81614
      H1     2.60667    9.06740   16.66836
       H     4.71709   13.97821   10.80128
       O     4.54438   13.15353   11.32701
      H1     3.81862   12.64517   10.92210
       H    -1.88112   13.75286    7.01237
       O    -1.19493   13.70331    7.71151
      H1    -0.37120   13.97798    7.25259
       H    -0.45774   13.96313   15.19812
       O    -0.37877   14.12613   14.26309
      H1    -0.64162   13.29314   13.84384
       H    -0.02484   16.18107   10.76848
       O     0.66533   15.53498   10.54131
      H1     0.44631   14.59900   10.75501
       H     2.27182   16.22756    9.95935
       O     2.87707   16.79643    9.47576
      H1     3.01492   16.54364    8.51903
       H     5.97118   12.16326   11.45150
       O     6.60006   11.45986   11.10981
      H1     7.43136   11.83064   11.20872
       H     1.11757    8.36720    9.15238
       O     0.84244    8.90751    9.93901
      H1     1.04846    8.50049   10.77607
       H     0.30230   11.29058   13.22595
       O    -0.58437   11.35774   12.92288
      H1    -0.63570   11.92091   12.15175
       H     9.05453   12.46688   12.92541
       O     9.37009   12.57596   12.01803
      H1     9.87004   11.82993   11.84050
       H     4.96989   10.83766    5.90332
       O     5.16720   11.78706    6.18335
      H1     5.92321   11.79198    6.74423
       H     7.89617   11.68095    8.14584
       O     7.00767   11.35987    8.29482
      H1     6.76842   11.49668    9.20984
       H     6.10415   15.27522    9.27721
       O     5.46178   15.37187    9.99796
      H1     4.74491   15.98610    9.67857
       H     5.12329   13.97500    5.91718
       O     5.30255   14.84430    6.31781
      H1     4.45677   15.26835    6.54430
       H     2.77015    7.33655   12.36912
       O     2.97920    8.26606   12.12495
      H1     3.89563    8.31632   12.30309
       H     3.57189    5.82305    9.84899
       O     4.15936    6.56038    9.70957
      H1     4.22903    7.04032   10.53835
       H     6.31330    9.13190   12.89610
       O     5.94875    8.74982   12.11519
      H1     5.88559    9.47807   11.47952
       H     2.11425   10.39516   13.10034
       O     1.90585   10.73857   13.98329
      H1     2.56786   11.46859   14.06423
       H     2.63120   16.35956   14.90357
       O     2.54998   15.42087   15.15331
      H1     1.77482   15.10720   14.66734
       H     1.21841   11.61214    9.98588
       O     2.18876   11.43122   10.00650
      H1     2.09754   10.43192    9.95543

