99
frame 7 | Written by MDAnalysis XYZWriter (release 2.4.3)
       H    -9.54444  -17.20491   -8.74794
       O    -9.11235  -16.79816   -9.50689
      H1    -8.62167  -17.55785   -9.85513
       H   -10.30045  -16.90311   -4.16354
       O    -9.34882  -16.91675   -4.21085
      H1    -9.20993  -16.99778   -3.26493
       H   -11.87323  -16.85521  -11.90721
       O   -11.31581  -16.20511  -11.46140
      H1   -10.75955  -16.62578  -10.76489
       H    -9.03714  -13.98860  -11.83175
       O    -9.90114  -13.92523  -12.18019
      H1   -10.33779  -14.78882  -11.94805
       H    -7.16404  -15.44702  -11.96417
       O    -6.80327  -15.00538  -11.14950
      H1    -6.34923  -14.22486  -11.59091
       H   -10.53361  -13.06946  -10.59270
       O   -10.67680  -12.80691   -9.66936
      H1   -10.36357  -13.60654   -9.28524
       H   -16.83247  -15.25260   -8.14518
       O   -17.01123  -16.21314   -8.17735
      H1   -16.50373  -16.62291   -8.93217
       H   -10.68389  -15.77067   -6.97096
       O   -10.44367  -14.80431   -7.04420
      H1    -9.79080  -14.57595   -6.29220
       H    -7.30158  -18.79709   -5.59907
       O    -6.53786  -18.15523   -5.52075
      H1    -6.34264  -17.78958   -6.42503
       H    -5.39400  -16.71689   -7.77715
       O    -6.06831  -17.20838   -8.25327
      H1    -6.76874  -16.57046   -8.21877
       H   -14.53429  -19.38050   -8.00560
       O   -13.77014  -18.92621   -8.34670
      H1   -13.64582  -18.05774   -7.93493
       H    -9.87435  -10.95557   -6.48432
       O    -9.71277  -11.33278   -5.62845
      H1   -10.52439  -11.15081   -5.11527
       H    -8.68813  -15.18866   -4.51800
       O    -8.63350  -14.29711   -4.94181
      H1    -9.26245  -13.76687   -4.37849
       H    -3.75443  -14.64518   -6.97800
       O    -4.47910  -15.33503   -6.84098
      H1    -5.18224  -14.79965   -6.45926
       H    -6.29713  -17.34703   -4.06898
       O    -6.23290  -17.07470   -3.07171
      H1    -6.25788  -16.13531   -2.99348
       H   -12.66638  -12.96863  -12.34354
       O   -13.05073  -13.83949  -12.60310
      H1   -12.44092  -14.49728  -12.25616
       H   -12.99217  -19.07077  -11.91675
       O   -13.92127  -18.81496  -12.01232
      H1   -14.07058  -18.68458  -12.98028
       H    -8.06981  -15.09332   -8.99689
       O    -7.85000  -14.80794   -8.04471
      H1    -8.69886  -15.03866   -7.58159
       H   -13.67616  -12.92007   -7.05759
       O   -13.22551  -13.72333   -6.69609
      H1   -12.26207  -13.44557   -6.67943
       H   -11.24990  -14.93827   -1.52803
       O   -10.89701  -15.07584   -0.64915
      H1   -11.43422  -14.40902   -0.17857
       H   -10.71054  -18.32077   -7.26924
       O   -10.65025  -17.47296   -6.84009
      H1   -10.09746  -17.56242   -6.09116
       H   -13.59130  -18.92322   -5.19184
       O   -13.02469  -18.19956   -5.32982
      H1   -13.46339  -17.52039   -5.82506
       H    -8.62114  -17.70765   -1.19665
       O    -8.42836  -16.79223   -1.37144
      H1    -7.56602  -16.79684   -1.86215
       H    -7.10859  -13.14251   -5.55764
       O    -6.26091  -12.96768   -6.03963
      H1    -6.32597  -12.00848   -6.18181
       H   -14.73442  -17.70521   -9.93916
       O   -15.60087  -17.38210  -10.22510
      H1   -15.54517  -17.56716  -11.17667
       H   -12.28278  -17.22315   -2.52215
       O   -12.07949  -16.69206   -3.28999
      H1   -12.41486  -17.20074   -4.03298
       H    -4.16605  -17.35744  -10.67796
       O    -4.71085  -18.14655  -10.53735
      H1    -5.28052  -17.93157   -9.79364
       H   -14.68330  -14.59240   -4.34421
       O   -14.87171  -15.37336   -3.86890
      H1   -14.03349  -15.63348   -3.48371
       H    -7.58879  -12.88578   -8.58965
       O    -7.29266  -12.06343   -9.00021
      H1    -8.00632  -11.36549   -8.81984
       H   -14.48442  -14.27082  -10.89371
       O   -15.18483  -14.39229  -10.21080
      H1   -15.42050  -15.28161  -10.33664
       H   -12.17058  -13.49230   -4.33935
       O   -11.73265  -13.87108   -3.56446
      H1   -11.89297  -14.82003   -3.75083
       H   -11.95218  -17.85895   -0.27387
       O   -12.53753  -18.26198   -0.90604
      H1   -13.35259  -18.05992   -0.49728
       H   -15.12452  -16.41557   -7.70209
       O   -14.20850  -16.27396   -7.41209
      H1   -13.97627  -15.29706   -7.63542

