99
frame 0 | Written by MDAnalysis XYZWriter (release 2.4.3)
       H    19.08033  -11.15756   13.19677
       O    19.99293  -11.63484   13.14576
      H1    19.80167  -12.57619   13.10723
       H    18.40386  -10.88826   15.01925
       O    18.49601  -11.27390   15.88154
      H1    17.76187  -11.91948   15.88235
       H    11.14061  -18.90546   11.12937
       O    11.14746  -19.77547   10.67250
      H1    11.97900  -19.92136   10.19615
       H    16.44202  -17.97964   18.74830
       O    15.58975  -18.47200   18.69204
      H1    14.98323  -17.72553   18.41367
       H    19.08660  -13.99953   17.21861
       O    18.16617  -14.24815   17.27084
      H1    18.18461  -14.79677   18.08865
       H    13.88136  -17.37153   14.29724
       O    13.89706  -17.84454   15.14535
      H1    13.04511  -17.73639   15.54782
       H    12.25001  -13.94326   15.34204
       O    11.32085  -14.03798   15.69509
      H1    10.72259  -14.09668   14.93310
       H    18.15213  -17.26542   17.48151
       O    18.09138  -16.93444   18.38749
      H1    18.87349  -17.32779   18.79666
       H    18.45538  -11.28110    8.59856
       O    17.72750  -11.51229    9.24187
      H1    18.10019  -12.26504    9.80643
       H    14.99022  -13.28701    6.20662
       O    14.89155  -13.15269    5.26122
      H1    15.43145  -12.34254    5.04926
       H    15.81044  -16.57988   12.47866
       O    16.36813  -17.12622   11.94888
      H1    17.23235  -17.23353   12.40607
       H    17.88473  -14.25516   11.48005
       O    18.27285  -14.00621   10.67199
      H1    19.19123  -14.17041   10.62426
       H    17.33018  -17.45587   15.70831
       O    18.00603  -18.11211   15.88273
      H1    17.67853  -19.02488   16.01198
       H    13.01424  -14.85423    9.95432
       O    13.10098  -13.90049   10.12374
      H1    12.18519  -13.58819    9.88127
       H    10.98190  -12.00928   11.49373
       O    11.60750  -12.46575   12.09130
      H1    12.32128  -12.75207   11.48412
       H    15.23336  -13.19201    9.17494
       O    15.61606  -12.84956    8.31992
      H1    16.39830  -12.34241    8.69000
       H    14.71152  -14.37419   15.12952
       O    14.01863  -14.10644   14.55292
      H1    14.44920  -13.86352   13.70222
       H    17.10777  -18.91387    8.82590
       O    17.26113  -19.82425    9.05573
      H1    17.42667  -19.78750   10.02559
       H    13.73411  -16.50095   10.69541
       O    13.88401  -16.80049    9.76982
      H1    14.74183  -16.34157    9.47232
       H    15.43643  -12.30314   12.11750
       O    15.37941  -13.26529   12.07201
      H1    14.68007  -13.48469   11.48810
       H    13.94037  -18.53362    9.11930
       O    13.86095  -19.24637    8.49874
      H1    13.91659  -20.03036    9.03467
       H    12.38215  -16.69878   12.42739
       O    13.26698  -16.24794   12.61693
      H1    12.93806  -15.52118   13.17606
       H    17.01357  -15.08325    9.62052
       O    16.52337  -15.89917    9.44523
      H1    16.67519  -16.48677   10.23417
       H    14.79043  -18.43568    5.40534
       O    15.32299  -19.02467    6.02717
      H1    14.75322  -19.03260    6.84063
       H    17.14727  -14.93742   15.97722
       O    16.41515  -15.37695   15.45571
      H1    15.91611  -15.83099   16.20522
       H    17.50657  -16.69050    5.40050
       O    17.79994  -16.30134    4.59146
      H1    17.57650  -16.97719    3.90701
       H    17.97507   -9.00452   13.99506
       O    17.94293   -9.86783   13.52530
      H1    17.33394   -9.72070   12.81799
       H    19.43629  -17.12074   12.01074
       O    18.90522  -17.05037   12.83691
      H1    19.46810  -17.17814   13.56734
       H    17.13525  -16.74788    7.86580
       O    17.18608  -17.29139    7.07235
      H1    16.28298  -17.51346    6.83012
       H    12.77720  -18.19771    7.58812
       O    12.50261  -17.51427    6.93936
      H1    12.22010  -17.98961    6.09779
       H    15.30139  -10.32546   10.94967
       O    15.82526  -10.32098   11.76599
      H1    15.41895   -9.71631   12.33501
       H    18.38372   -8.42166    8.96381
       O    18.43159   -8.65550    9.92022
      H1    18.17244   -9.63978    9.93115
       H    14.09166  -16.65380   16.80882
       O    14.59891  -16.17798   17.46481
      H1    14.07239  -15.49574   17.91717

