99
frame 8 | Written by MDAnalysis XYZWriter (release 2.4.3)
       H    18.74565    3.86299   -6.92465
       O    19.26563    3.98613   -6.11605
      H1    20.09015    3.56842   -6.46372
       H    14.84892    6.91680   -6.67467
       O    13.89441    7.06375   -6.52053
      H1    13.81909    7.94472   -6.09685
       H    18.72952    5.37808   -9.80115
       O    19.39508    5.89526  -10.19929
      H1    19.01015    6.13139  -11.03782
       H    15.28243   12.01967  -12.01691
       O    16.05084   11.72962  -12.51752
      H1    16.81192   12.21963  -12.19641
       H    13.68763    8.02463   -8.02114
       O    13.87520    8.34334   -8.91674
      H1    13.25318    9.00855   -9.19429
       H    14.85508    3.20669   -5.80794
       O    14.57766    3.07623   -4.82930
      H1    13.89615    3.72601   -4.60170
       H    12.53174    3.31514  -13.54927
       O    12.94801    2.89944  -12.80565
      H1    13.88789    2.93281  -13.00430
       H    17.58554   10.48559   -8.30016
       O    18.09260   10.26510   -9.13983
      H1    17.33234   10.00232   -9.77838
       H    16.96702    6.62066   -5.72716
       O    16.74959    6.33915   -4.80995
      H1    16.94871    5.38530   -4.78409
       H    13.59777    7.47064  -13.29068
       O    12.80220    7.87686  -13.05867
      H1    12.16692    7.20059  -12.81925
       H    18.52857   11.15805   -6.08655
       O    17.76878   11.66203   -6.43926
      H1    17.04319   11.48417   -5.85861
       H    18.28754   12.05204  -10.27452
       O    18.16226   12.79713  -10.82998
      H1    18.61882   13.51716  -10.32623
       H    20.12892    2.55233   -8.26828
       O    19.64511    3.14768   -8.86648
      H1    18.99217    2.52378   -9.17131
       H    17.29830    6.97757  -12.91314
       O    18.17513    6.59204  -12.71499
      H1    18.05917    5.63313  -12.96119
       H    15.79815    8.24319  -12.55768
       O    15.50464    7.67261  -13.30770
      H1    15.48540    8.29567  -14.08598
       H    16.71214    3.39340   -4.49095
       O    17.34654    3.89721   -3.97610
      H1    18.16261    3.71943   -4.46294
       H    15.22058    3.68723  -14.48885
       O    15.46028    3.06699  -13.81736
      H1    15.66843    2.25863  -14.16125
       H    17.54549    2.64118  -11.36913
       O    17.20016    1.97427  -10.76466
      H1    16.26881    2.08304  -10.63190
       H    15.30014    9.09065  -10.61806
       O    16.12821    9.43989  -10.92962
      H1    16.04918   10.17956  -11.58072
       H    16.79321    6.45109   -8.32678
       O    16.77723    6.96046   -7.53257
      H1    17.54993    7.52880   -7.52268
       H    17.76072    9.07153   -3.02617
       O    18.31556    8.36948   -3.41390
      H1    17.76929    7.80281   -3.89101
       H    18.51599    5.98453  -16.45172
       O    17.82666    6.19923  -15.85083
      H1    17.97791    7.12636  -15.55792
       H    15.00991    3.02798   -8.11707
       O    15.95087    2.81367   -7.92295
      H1    16.11788    1.86980   -8.09972
       H    16.56923    4.11098   -9.19996
       O    16.76737    4.97670   -9.65121
      H1    16.29861    4.82830  -10.52562
       H    16.72637   -0.63368   -7.79751
       O    16.64537    0.08071   -7.21734
      H1    15.74184   -0.03851   -6.98119
       H    18.41743    0.97645  -11.36480
       O    18.87886    0.48106  -12.02452
      H1    19.79632    0.64154  -12.00015
       H    16.20993    5.57635  -16.05584
       O    15.27292    5.37535  -16.02295
      H1    15.18132    4.66764  -16.65505
       H    13.12330    3.40463  -10.79668
       O    13.02398    3.31811   -9.83364
      H1    12.67696    2.47464   -9.59913
       H    12.64676    6.63253   -9.16307
       O    12.00159    5.89847   -9.26345
      H1    12.53944    5.23192   -9.64748
       H    18.67903    8.63984   -8.57593
       O    19.01282    7.95060   -8.03763
      H1    19.15206    7.30197   -8.71824
       H    17.51768    9.89542  -14.72073
       O    18.41159    9.76802  -15.02573
      H1    18.29531    9.34761  -15.88552
       H    15.34854    6.01577  -12.38988
       O    15.36063    5.16112  -11.94431
      H1    15.85239    4.64429  -12.65165
       H    17.82702    3.21954  -13.62000
       O    18.30092    3.67874  -12.86678
      H1    19.20924    3.45044  -12.95454

