99
frame 8 | Written by MDAnalysis XYZWriter (release 2.4.3)
       H   -13.77650  -11.90052    8.85963
       O   -14.22999  -12.53590    8.28598
      H1   -14.70768  -12.01203    7.62517
       H   -12.44302  -12.40801   14.07312
       O   -12.56765  -13.36097   13.86521
      H1   -13.47354  -13.51781   13.53348
       H   -18.03359   -9.78364   11.73488
       O   -18.07998  -10.75739   11.99878
      H1   -18.91659  -10.81061   12.51560
       H   -12.85373   -7.80574    8.73918
       O   -13.62364   -8.38686    8.81746
      H1   -14.28362   -7.85888    9.21865
       H   -18.12779  -18.69562    9.07456
       O   -17.53049  -19.07132    8.36879
      H1   -17.55633  -20.02763    8.52071
       H   -15.80678  -17.96320   10.72118
       O   -15.91435  -17.64118   11.64058
      H1   -15.09316  -17.86663   12.11574
       H   -17.03252   -8.05767   10.46014
       O   -17.69450   -8.32319   11.08298
      H1   -18.46106   -7.88066   10.71517
       H   -11.60999  -10.20654   11.04868
       O   -10.69035  -10.32770   11.17642
      H1   -10.55033  -11.25534   11.41517
       H   -17.00378  -10.45611   14.22660
       O   -17.34607  -10.66526   15.07815
      H1   -16.63081  -10.54101   15.70422
       H   -17.82296  -10.51682    8.08311
       O   -17.51796   -9.78705    7.57506
      H1   -17.31224   -9.10187    8.20349
       H   -10.64421  -14.15234    7.44032
       O   -10.40540  -14.66050    8.20686
      H1   -11.24427  -14.87953    8.64311
       H   -15.76891  -13.22550    8.57267
       O   -16.64696  -13.61020    8.62196
      H1   -16.68567  -14.06491    9.48777
       H   -15.31870  -12.36446   12.92801
       O   -15.32779  -11.77111   12.16276
      H1   -16.25509  -11.64638   11.90231
       H   -12.47330  -17.05029   11.53436
       O   -12.30391  -17.66370   12.30294
      H1   -11.93192  -17.02985   12.93056
       H   -18.16871  -13.48005    5.99743
       O   -17.94280  -12.58924    5.67051
      H1   -17.13018  -12.31611    6.00830
       H   -19.76085   -9.35837    3.69184
       O   -19.12259   -9.81565    4.23749
      H1   -19.54122  -10.08228    5.05273
       H   -15.65276  -14.66854   12.95345
       O   -15.02226  -14.55652   13.72170
      H1   -14.84960  -15.45278   14.05412
       H   -12.46368  -11.10845    5.64223
       O   -13.00539  -10.46460    5.16007
      H1   -12.37761   -9.71370    5.01060
       H   -13.45347  -17.57739    6.88178
       O   -13.87784  -16.86390    7.47107
      H1   -14.30725  -17.41485    8.18897
       H   -14.13382  -11.06656   10.75560
       O   -13.29694  -10.88023   10.30259
      H1   -13.41906   -9.99178    9.94159
       H   -11.03484  -13.95737   11.11131
       O   -10.66107  -13.29244   11.72353
      H1   -11.30945  -13.38108   12.46875
       H   -15.30649  -12.00687    2.79869
       O   -15.54622  -12.72571    3.41247
      H1   -16.00913  -12.20302    4.11073
       H   -17.83575  -12.49891    9.03515
       O   -18.46170  -11.73630    9.29858
      H1   -18.32866  -11.48601   10.22858
       H   -15.94175  -18.99187    8.88853
       O   -15.01159  -18.76901    9.02644
      H1   -14.65207  -19.62292    9.19336
       H   -15.05604  -15.93248    6.65280
       O   -15.62227  -15.26295    6.14331
      H1   -15.97346  -14.81335    6.87327
       H   -17.96111  -17.56004    5.08931
       O   -17.47072  -16.86745    4.62896
      H1   -16.98489  -16.29206    5.25319
       H   -12.22852  -12.64380    7.22024
       O   -11.68158  -12.60908    6.42971
      H1   -12.05439  -13.18598    5.79101
       H   -15.99036  -10.40728    6.59745
       O   -15.48273  -11.15436    6.30497
      H1   -14.73284  -10.73439    5.82843
       H   -14.00958  -13.47386    4.15738
       O   -13.46392  -14.01252    4.74760
      H1   -14.13504  -14.50623    5.22099
       H   -11.44536  -16.83191    9.72395
       O   -12.17563  -16.23921    9.70632
      H1   -12.62025  -16.41601    8.85567
       H   -19.02019  -13.05443   14.17379
       O   -19.41546  -12.40278   14.81436
      H1   -18.64992  -11.71039   14.96615
       H   -17.69094  -14.87381   12.56053
       O   -16.96819  -15.07043   11.96989
      H1   -16.88918  -16.03369   11.93585
       H   -14.46972   -9.87125   13.05619
       O   -14.46728   -8.90873   13.24588
      H1   -13.86618   -8.57988   12.53919

