99
frame 8 | Written by MDAnalysis XYZWriter (release 2.4.3)
       H    18.92300    4.00734    5.79598
       O    18.42168    3.16967    5.77670
      H1    17.56380    3.53791    6.09812
       H    12.43083   -2.47656   -0.44819
       O    12.98970   -2.09589   -1.13101
      H1    13.48990   -2.84403   -1.55686
       H    14.26925    4.15987    1.94365
       O    14.67415    4.87747    1.39982
      H1    15.28673    4.38038    0.89215
       H    15.72116    3.00416    7.33997
       O    15.77760    3.63256    6.57751
      H1    15.88909    4.50353    7.00201
       H    11.89085   -2.47164    6.62728
       O    11.85188   -2.25202    7.57898
      H1    12.60198   -1.59299    7.70377
       H    13.19704    4.75487    5.01166
       O    13.45017    3.81138    5.20540
      H1    14.27675    3.88404    5.74447
       H    12.20250    3.17002    6.17923
       O    11.33230    3.04639    6.67755
      H1    11.12761    2.06015    6.60836
       H    10.25727   -1.54486    3.26467
       O    10.22395   -0.59488    3.18738
      H1     9.31525   -0.36710    3.55601
       H    17.18870    2.74613    1.27500
       O    16.97993    3.27000    0.48158
      H1    17.77563    3.20262   -0.08091
       H    15.28012   -1.23982   -3.78883
       O    15.85865   -0.92646   -3.07475
      H1    15.28063   -0.28272   -2.54761
       H    13.24729   -4.00713    3.68443
       O    13.58024   -3.27938    4.28708
      H1    14.54101   -3.35459    4.21808
       H    14.57747    0.49475   -0.58531
       O    14.42690    0.78891   -1.48553
      H1    14.56487    1.73821   -1.60966
       H    14.45666    3.09135    3.82279
       O    14.90308    2.57014    3.09573
      H1    14.51603    1.70928    3.06775
       H    11.84317   -2.86303    1.75736
       O    11.19090   -2.73252    1.00664
      H1    10.71818   -3.59408    1.08337
       H    16.63255   -2.87879    4.91256
       O    16.40972   -3.72717    4.54112
      H1    16.60755   -4.43774    5.14743
       H    13.99408    0.15999    7.50448
       O    14.13195   -0.79375    7.57563
      H1    14.84117   -1.01417    6.95860
       H    11.35384    5.53610    4.37855
       O    10.49995    5.14549    4.67593
      H1    10.77455    4.42723    5.33810
       H    16.12652    1.70128    9.11065
       O    15.51181    2.40295    8.90967
      H1    14.74731    1.99098    9.33823
       H    16.24907    6.84613    6.59812
       O    16.89760    7.22355    5.93534
      H1    17.01458    6.58018    5.20661
       H    18.25901    0.15190    7.16954
       O    17.55418    0.67194    6.67517
      H1    17.93123    1.54343    6.55066
       H    12.80686    0.66884   -1.75005
       O    11.88616    0.53406   -2.05390
      H1    11.87502   -0.43759   -2.02325
       H    11.67002    4.08707    1.07991
       O    11.68392    3.90274    2.02661
      H1    11.03159    4.44225    2.46313
       H    13.35186   -1.57046    3.91443
       O    13.51083   -0.77354    3.40408
      H1    13.01285   -0.03257    3.73479
       H    13.27271    7.05625    3.45693
       O    13.11247    6.51855    4.25656
      H1    12.98083    7.16067    4.96974
       H    15.42787    3.07324   -0.70927
       O    14.93065    3.36824   -1.48286
      H1    15.57250    3.47260   -2.22174
       H    15.34197   -1.32346    0.95761
       O    15.04898   -0.40752    1.26069
      H1    14.47533   -0.58003    2.06238
       H    16.04815    5.18748    3.13091
       O    16.75159    5.44015    3.68654
      H1    17.24809    4.65461    4.02308
       H    16.62946   -0.25588    5.62480
       O    16.06215   -0.98928    5.40497
      H1    15.52127   -0.66623    4.67179
       H    11.09896    0.80396    3.60564
       O    11.81495    1.25131    4.12764
      H1    11.98958    2.09275    3.70854
       H    13.50611    4.39592   -1.10317
       O    12.86229    5.00054   -0.81946
      H1    13.16884    5.39073    0.02375
       H    16.96327    6.86353    1.86867
       O    17.36827    7.37285    1.13114
      H1    17.89648    6.70214    0.61288
       H     9.81588   -0.27602    7.17511
       O    10.09813    0.40245    6.55286
      H1    10.61063   -0.08896    5.87942
       H     9.98294    0.73542   -0.04739
       O     9.49722    0.15728    0.54145
      H1    10.19407   -0.20941    1.09808

