99
frame 8 | Written by MDAnalysis XYZWriter (release 2.4.3)
       H   -16.71421  -18.80703   16.58917
       O   -16.72323  -18.33275   15.73980
      H1   -16.44470  -19.01428   15.13419
       H   -12.44302  -12.40801   14.07312
       O   -12.56765  -13.36097   13.86521
      H1   -13.47354  -13.51781   13.53348
       H    -5.94667  -17.41617   12.91372
       O    -6.19307  -16.46300   12.91066
      H1    -5.46750  -15.94954   12.45173
       H    -6.17121  -16.07157   18.49903
       O    -6.21982  -15.11439   18.69914
      H1    -7.12678  -14.89411   18.28996
       H   -15.87748  -14.14757   18.05119
       O   -16.29308  -13.91376   17.21264
      H1   -15.65634  -13.90150   16.51007
       H   -10.96082  -15.88868   19.73614
       O   -11.16511  -15.15167   19.10009
      H1   -11.03505  -14.33119   19.58942
       H    -8.87382  -14.50462   16.53312
       O    -7.95152  -14.68916   16.76497
      H1    -7.49445  -14.48807   15.88530
       H   -13.26565  -12.37202   17.52372
       O   -13.20621  -12.79053   16.65444
      H1   -13.26012  -13.73167   16.87114
       H    -8.60330  -12.97494   12.08200
       O    -7.86125  -12.92789   12.69533
      H1    -7.29733  -12.18121   12.38796
       H   -12.73075  -19.90152   19.37173
       O   -13.34745  -19.23208   18.90060
      H1   -13.01975  -18.80996   18.10268
       H    -6.20807  -19.78691   14.47585
       O    -6.64180  -19.08840   13.98340
      H1    -7.11982  -19.49189   13.27986
       H    -7.11564  -13.80041   13.97903
       O    -6.40898  -14.06023   14.65616
      H1    -5.93682  -14.78748   14.12348
       H    -3.54772  -13.35465   17.45217
       O    -3.78271  -14.27975   17.42344
      H1    -4.68797  -14.31639   17.72415
       H    -1.28286  -16.67817   18.80646
       O    -2.16169  -16.95720   18.47495
      H1    -2.75751  -16.21773   18.36735
       H   -12.09476  -15.43826   15.99379
       O   -12.62813  -15.50871   16.83411
      H1   -12.00640  -15.58398   17.59996
       H   -12.47330  -17.05029   11.53436
       O   -12.30391  -17.66370   12.30294
      H1   -11.93192  -17.02985   12.93056
       H    -8.12212  -16.35108   15.34852
       O    -8.70352  -16.99505   14.87223
      H1    -7.99005  -17.50440   14.40832
       H   -15.65276  -14.66854   12.95345
       O   -15.02226  -14.55652   13.72170
      H1   -14.84960  -15.45278   14.05412
       H    -4.90366  -19.56499   17.80752
       O    -4.96755  -19.57738   18.74527
      H1    -4.13547  -19.15752   19.03339
       H    -4.09645  -18.78112   15.45348
       O    -4.39993  -19.48142   16.07796
      H1    -3.76476  -20.21037   15.95298
       H   -16.55390  -19.08233   18.56463
       O   -15.85998  -19.47993   17.98495
      H1   -15.05234  -19.30511   18.48173
       H   -11.42591  -13.28215   16.25313
       O   -10.43940  -13.38727   16.03745
      H1    -9.92906  -12.89639   16.72883
       H   -11.09776  -14.80629   14.38768
       O   -11.20816  -15.70454   14.41462
      H1   -10.34461  -16.09167   14.63089
       H    -9.86007  -17.14724   18.01600
       O    -9.45112  -17.99310   17.83682
      H1    -9.60040  -18.10998   16.90817
       H   -11.03484  -13.95737   11.11131
       O   -10.66107  -13.29244   11.72353
      H1   -11.30945  -13.38108   12.46875
       H    -7.51057  -14.68905   11.06170
       O    -8.07828  -15.48175   11.17833
      H1    -7.53072  -16.03784   11.75623
       H   -13.62740  -18.67813   16.16992
       O   -12.73149  -18.30939   16.44929
      H1   -12.96617  -17.37020   16.47937
       H    -5.95551  -11.94379   18.82833
       O    -6.27509  -11.76478   17.89573
      H1    -6.29730  -12.64784   17.46758
       H    -6.39802  -18.59720   18.77568
       O    -7.01425  -17.84298   18.89130
      H1    -7.75049  -18.01574   18.24905
       H    -3.66442  -15.75235   15.90231
       O    -3.81580  -16.25657   15.09138
      H1    -3.34057  -15.74082   14.44511
       H   -12.62019  -19.21844   14.57295
       O   -12.44188  -19.77532   13.80736
      H1   -12.42973  -19.05099   13.10769
       H    -9.74984  -11.16251   17.61321
       O    -9.24701  -11.89570   18.00587
      H1    -8.32458  -11.80955   17.79118
       H   -14.62021  -15.90110   15.67959
       O   -14.71132  -16.76993   15.28158
      H1   -15.57157  -17.22323   15.56556

