99
frame 9 | Written by MDAnalysis XYZWriter (release 2.4.3)
       H   -12.08867  -13.29661   13.30271
       O   -12.28053  -14.12771   12.79252
      H1   -13.22778  -14.28473   12.89408
       H   -12.43029   -9.74753   17.76786
       O   -13.29405   -9.58142   18.10138
      H1   -13.25296   -8.69364   18.46797
       H    -9.37511  -13.21913   20.23217
       O   -10.02346  -13.18793   19.50327
      H1    -9.46819  -12.63809   18.90648
       H    -7.21230  -16.82161   19.22324
       O    -7.79353  -16.05506   19.11569
      H1    -7.65633  -15.70888   18.16996
       H   -14.04204   -9.35696   15.70131
       O   -14.26145  -10.22977   15.45123
      H1   -14.23889  -10.73562   16.31844
       H   -16.11097  -14.87425   18.74294
       O   -16.32777  -14.52540   17.86672
      H1   -15.49293  -14.02385   17.65565
       H   -11.81615  -16.06316   19.76474
       O   -11.56538  -15.68481   18.90836
      H1   -10.99238  -14.91409   19.09794
       H   -10.29530   -8.52105   17.57964
       O   -10.49417   -9.45124   17.38402
      H1   -10.60985   -9.43271   16.45991
       H    -8.77500  -14.28245   16.70348
       O    -7.92529  -14.70847   16.72067
      H1    -7.42568  -14.28318   16.08722
       H   -13.82339  -12.49735   18.32619
       O   -14.13826  -12.70478   17.42418
      H1   -13.54121  -13.35456   16.95916
       H    -9.01835  -10.66003   12.48816
       O    -8.48639  -11.07700   13.19254
      H1    -7.56577  -10.98000   12.89574
       H   -11.78077   -9.65307   12.24500
       O   -11.63209  -10.64713   12.16195
      H1   -12.34587  -10.75061   11.50437
       H   -16.82647  -10.03125   13.44802
       O   -16.71446   -9.60949   14.29763
      H1   -15.82908   -9.83917   14.62215
       H    -7.51879  -12.76732   14.73572
       O    -6.78190  -13.41148   14.78475
      H1    -6.90738  -14.05526   14.04784
       H   -12.90969  -11.52237   14.93219
       O   -12.19884  -12.09218   14.56248
      H1   -11.89536  -11.51103   13.80106
       H   -12.42710  -15.28420   15.96853
       O   -13.03729  -15.11366   16.68755
      H1   -12.48533  -15.22754   17.46915
       H   -15.10616  -12.05932   12.69603
       O   -15.12472  -11.13733   12.40077
      H1   -16.08995  -11.02713   12.22612
       H   -11.74252  -17.10381   11.47588
       O   -11.55802  -17.81511   12.06487
      H1   -11.54827  -17.36729   12.90455
       H    -6.83521   -7.62421   18.69215
       O    -6.45650   -8.50757   18.42350
      H1    -6.87291   -8.78740   17.61873
       H    -8.34263  -16.04196   15.44540
       O    -8.91214  -16.65894   14.91820
      H1    -8.27515  -17.32385   14.52172
       H   -15.49195  -14.35441   12.42272
       O   -14.99343  -13.82018   13.03243
      H1   -15.33383  -14.07028   13.89959
       H   -10.79822  -12.77495   15.48542
       O   -10.07411  -12.83810   16.12955
      H1    -9.95972  -11.97103   16.48630
       H   -11.45140  -15.51905   13.52812
       O   -11.39320  -16.19935   14.22621
      H1   -10.36823  -16.33991   14.28056
       H    -6.78731  -10.02370   15.18344
       O    -7.22246   -9.35722   15.76034
      H1    -8.04958   -9.15842   15.30712
       H   -16.30993   -9.15226   17.89321
       O   -16.10038  -10.03023   18.17933
      H1   -15.15413  -10.07777   17.92149
       H   -10.69361  -17.03538   17.95560
       O   -10.30852  -17.72307   17.33329
      H1    -9.58678  -17.24669   16.89518
       H   -11.07882  -14.57447    9.79379
       O   -11.15717  -13.59776    9.97368
      H1   -11.44097  -13.59386   10.87220
       H    -9.31906  -13.73187   10.65648
       O    -8.50526  -14.19371   10.75323
      H1    -8.07911  -14.03106   11.57963
       H   -13.39989  -17.21416   16.00611
       O   -12.86758  -18.00905   16.22425
      H1   -12.00401  -17.73038   16.40040
       H   -10.13558   -8.65120   14.00233
       O   -10.05073   -9.33037   14.70896
      H1    -9.70804  -10.10311   14.22526
       H    -5.37825  -12.17075   17.76544
       O    -5.99094  -11.96435   17.03543
      H1    -5.97621  -12.80339   16.50852
       H    -8.89595  -10.33189   17.67047
       O    -8.44028  -11.14724   17.96351
      H1    -7.70869  -11.25393   17.34845
       H   -14.80996  -15.93589   15.65568
       O   -15.08396  -16.16066   14.75743
      H1   -15.58876  -16.96892   14.89355

