99
frame 8 | Written by MDAnalysis XYZWriter (release 2.4.3)
       H    17.47323  -14.05567   -6.59758
       O    17.10408  -14.34324   -7.44898
      H1    17.11629  -13.56877   -8.04814
       H    18.39391   -8.88869   -8.70745
       O    18.29026   -9.68830   -8.20542
      H1    17.89418   -9.50823   -7.30631
       H    11.74360   -9.91224  -11.61782
       O    11.43109   -8.99096  -11.40220
      H1    12.04271   -8.34078  -11.71804
       H    11.71410   -8.63611   -9.82082
       O    11.89296   -8.38367   -8.92242
      H1    12.83564   -8.44670   -8.70546
       H    17.62781  -12.04610   -4.46114
       O    16.98752  -11.47808   -3.90703
      H1    16.81659  -10.79148   -4.60186
       H    16.37621   -5.04002  -11.21004
       O    15.76504   -5.72949  -11.51849
      H1    16.24259   -6.57871  -11.43943
       H    13.87949   -4.76523  -13.62614
       O    13.57082   -4.93815  -14.48360
      H1    13.10200   -5.78583  -14.41770
       H    13.67320  -11.92120   -8.41800
       O    13.88924  -11.24236   -7.72604
      H1    14.77800  -11.64388   -7.59879
       H    12.51910  -11.74422   -6.51393
       O    11.99230  -11.54439   -5.67636
      H1    11.08895  -11.50256   -5.96688
       H    14.28443  -12.13241  -11.27066
       O    15.24960  -12.24566  -11.32164
      H1    15.41392  -13.18231  -11.45749
       H    14.54905   -2.79656  -10.65033
       O    14.46150   -3.17368   -9.72252
      H1    14.01574   -4.01712   -9.83236
       H    18.92789   -9.95597  -14.63588
       O    18.38005   -9.81428  -15.40628
      H1    17.47382   -9.90338  -15.11253
       H    12.45952   -9.45562   -6.39652
       O    12.98910   -8.80970   -5.91636
      H1    13.57135   -9.24059   -5.24334
       H    14.56361   -9.61568   -8.13945
       O    14.54703   -8.71178   -8.56089
      H1    14.79535   -8.24952   -7.74227
       H    17.64569   -2.91717  -11.64564
       O    17.75096   -3.70613  -11.10389
      H1    17.41358   -3.40907  -10.23646
       H    14.74450   -6.98234   -5.86478
       O    15.47657   -7.27404   -6.41563
      H1    15.75266   -6.44365   -6.84096
       H    12.99589  -14.82772   -9.67774
       O    13.28467  -13.93331   -9.82405
      H1    13.97652  -13.95949  -10.44836
       H    13.03842   -6.28303   -8.72366
       O    13.40575   -5.46338   -8.51747
      H1    12.67724   -4.95178   -8.02863
       H    11.69125  -12.60206  -11.37702
       O    12.12599  -11.96863  -11.98226
      H1    12.17565  -12.44118  -12.83185
       H    14.71456   -8.63535  -15.31183
       O    13.87612   -9.11502  -15.40352
      H1    13.59034   -9.17541  -16.30466
       H    16.16660   -9.25629  -11.40546
       O    16.31109   -8.50770  -10.82362
      H1    15.92688   -8.66937   -9.97928
       H    12.49554   -7.10067  -13.19294
       O    12.05779   -7.20046  -14.09949
      H1    12.48339   -8.00037  -14.51313
       H    18.90959   -6.98404   -9.52191
       O    17.96408   -6.90822   -9.52189
      H1    17.77051   -7.50173  -10.23853
       H    19.24281  -10.62942  -12.08877
       O    19.23219   -9.73371  -12.45471
      H1    18.29783   -9.47586  -12.20190
       H    13.91466   -6.33804  -11.63796
       O    13.11911   -6.80501  -11.68139
      H1    12.46183   -6.22805  -11.16719
       H    17.24332  -11.27958   -8.77542
       O    16.55313  -11.93467   -8.82480
      H1    16.19336  -11.84579   -9.73682
       H    17.60259   -6.46996  -14.21999
       O    18.45059   -6.04559  -14.16265
      H1    19.03432   -6.37798  -14.85767
       H    16.22399   -6.94425  -15.92370
       O    15.84523   -7.10715  -15.05728
      H1    15.18252   -6.41537  -14.81863
       H    16.76844   -8.64216   -6.06237
       O    17.31946   -9.38023   -5.80253
      H1    18.00199   -9.01537   -5.25786
       H    19.40948  -12.96465  -11.10307
       O    19.17753  -12.43816  -11.89665
      H1    19.99377  -12.35655  -12.42311
       H    10.90382   -9.16746   -7.73162
       O    10.13643   -9.49054   -7.31655
      H1    10.10930  -10.48370   -7.43765
       H    16.74424   -5.93391   -8.81589
       O    16.30093   -5.33245   -8.17795
      H1    15.36094   -5.39547   -8.23373
       H    15.93460  -11.23601  -12.49068
       O    16.56708  -10.59154  -12.90407
      H1    17.45164  -10.85470  -12.69327

