99
frame 9 | Written by MDAnalysis XYZWriter (release 2.4.3)
       H     8.18813   -8.84044  -12.62827
       O     7.48624   -9.51505  -12.83755
      H1     7.88286  -10.13260  -13.48506
       H    11.71033   -9.55208  -11.42694
       O    11.77997   -8.94166  -10.71951
      H1    12.24495   -8.10321  -11.02384
       H     9.13700  -15.82188  -19.71123
       O     9.73257  -15.31979  -19.08554
      H1     9.97759  -14.50774  -19.52558
       H    15.15181  -12.69918  -15.96837
       O    14.73856  -13.48831  -15.56234
      H1    15.26376  -14.22246  -15.85982
       H     8.63582  -13.72903  -18.62398
       O     8.48275  -13.05694  -17.99286
      H1     7.89523  -12.45415  -18.51959
       H    12.56790  -16.69377  -14.76706
       O    12.86980  -16.91627  -15.64641
      H1    13.56981  -17.52616  -15.71763
       H     9.79187   -9.96595  -15.55226
       O    10.32959   -9.51553  -16.25860
      H1     9.76169   -8.78605  -16.50294
       H    11.56295  -13.44677  -10.43021
       O    10.74545  -13.09395  -10.71809
      H1    10.13678  -13.84648  -10.60516
       H    16.72261  -16.61666  -15.47986
       O    16.48553  -15.77784  -15.86324
      H1    17.34725  -15.34985  -15.93889
       H    13.44081  -10.91304  -10.90594
       O    14.15973  -11.35170  -11.41642
      H1    14.24012  -12.19658  -10.97970
       H    12.39608   -9.47364  -16.67592
       O    13.21355   -8.90188  -16.68946
      H1    13.43636   -8.72327  -17.62953
       H    10.28224  -12.98022  -17.02916
       O    11.23244  -12.95398  -16.87557
      H1    11.53794  -13.78809  -17.17318
       H    13.64723  -18.07836  -10.87276
       O    14.19360  -17.59618  -11.49110
      H1    13.60825  -16.97988  -11.97467
       H    12.29545  -17.44920  -19.49803
       O    11.43586  -17.57170  -19.09495
      H1    10.98875  -16.70818  -19.14425
       H     8.62986  -16.07229  -12.20979
       O     8.78878  -15.29300  -11.58179
      H1     8.33661  -15.59169  -10.75540
       H    13.25267  -14.39703   -9.28963
       O    13.42850  -13.77756  -10.01416
      H1    13.59480  -14.37320  -10.75937
       H    13.64051  -15.57793  -18.88239
       O    13.97977  -15.83288  -19.78805
      H1    14.78927  -15.36907  -19.92062
       H    10.54802  -11.66403  -12.03119
       O    11.15545  -11.00225  -12.38068
      H1    11.94315  -11.55676  -12.55417
       H    16.05927   -8.15360  -14.59999
       O    15.37084   -8.81400  -14.60010
      H1    14.94625   -8.69856  -15.45667
       H    11.64182  -13.27275  -14.94398
       O    12.30679  -13.42150  -14.24692
      H1    13.07684  -13.23584  -14.80592
       H    11.02598  -17.26173  -16.25077
       O    10.07244  -17.27909  -15.96959
      H1     9.65260  -16.49013  -16.30446
       H    16.09221  -13.72994  -19.37000
       O    15.49960  -13.48469  -18.68073
      H1    14.94541  -12.78807  -19.09855
       H    15.45451  -10.56044  -15.52223
       O    15.42501  -10.94753  -16.40797
      H1    14.72113  -10.42110  -16.84273
       H    11.06989  -15.88950  -12.47608
       O    11.95757  -15.99098  -12.81583
      H1    12.19223  -15.09378  -13.14378
       H     7.36410  -13.34930  -14.14227
       O     7.73930  -13.22676  -13.27794
      H1     7.91499  -14.14130  -12.97890
       H     7.57988  -16.67065  -14.55496
       O     7.06203  -15.88521  -14.70229
      H1     6.17398  -16.09608  -14.31587
       H    10.81943  -10.08733  -18.19108
       O    11.02164  -10.67302  -18.97006
      H1    11.36331  -11.52088  -18.45594
       H    16.22513  -14.52554  -12.57034
       O    15.55098  -13.85278  -12.72382
      H1    15.62407  -13.66978  -13.64717
       H    10.19489  -10.78464  -13.97699
       O     9.24041  -10.96284  -14.37673
      H1     9.13593  -11.85094  -14.03276
       H    13.60475  -14.32204  -17.20329
       O    12.92201  -14.97606  -17.47615
      H1    13.11399  -15.72185  -16.84811
       H    16.81713  -11.86560  -13.20874
       O    17.53244  -11.16886  -13.17489
      H1    18.10363  -11.40310  -12.43818
       H     7.12229  -13.45043  -16.77004
       O     6.56495  -13.43941  -15.99201
      H1     6.78933  -14.32682  -15.64603
       H     9.34923  -18.10051  -12.38814
       O     9.00017  -17.58875  -13.15661
      H1     9.78095  -17.40181  -13.69814

