99
frame 9 | Written by MDAnalysis XYZWriter (release 2.4.3)
       H     5.55101    2.38803   11.31386
       O     5.09419    1.65798   11.71348
      H1     5.35219    1.76002   12.65638
       H     8.07193    2.86519   16.46924
       O     7.58295    2.03709   16.44393
      H1     6.82905    2.18746   15.89579
       H     4.61671   -2.28568   13.03092
       O     5.25466   -2.65980   12.41810
      H1     5.02507   -2.41370   11.52827
       H     7.76283   -3.94240   12.88760
       O     8.12517   -4.07941   12.00345
      H1     7.48117   -4.57578   11.47955
       H    11.03340    3.16798   14.02487
       O    11.70290    2.66076   14.53243
      H1    12.42764    2.50274   13.97579
       H    14.46695    1.98533   13.30378
       O    13.79313    2.58114   12.90429
      H1    13.45851    2.16170   12.10898
       H    11.64994    2.41565    6.49825
       O    10.87330    2.84649    6.88668
      H1    10.13431    2.45511    6.47576
       H    12.72641   -1.87417   13.21584
       O    12.66903   -0.94079   13.25908
      H1    11.71028   -0.81671   13.07702
       H    13.50334   -1.54337    8.28048
       O    13.67327   -1.98586    7.43993
      H1    13.98611   -1.30492    6.79562
       H    16.27163    1.64853    9.93592
       O    15.59688    2.32336   10.09630
      H1    14.70008    1.98697    9.84918
       H     8.57045    1.79614    7.10461
       O     8.41599    1.86150    6.17631
      H1     9.07935    1.25075    5.79757
       H     6.22736    6.40554    8.00260
       O     6.14320    5.60930    8.53716
      H1     5.39729    5.75913    9.08292
       H     9.49337   -0.08270   12.98565
       O     9.69236   -0.52891   12.15492
      H1     8.81260   -0.55119   11.67112
       H     6.14425    0.90442   14.15990
       O     5.71722    1.78319   14.30641
      H1     4.96442    1.61822   14.87771
       H     6.12542    3.64629   13.84116
       O     6.78190    4.36659   13.88877
      H1     6.47298    5.12201   13.32928
       H     8.53799   -1.63843    9.78600
       O     7.92068   -1.53759   10.52185
      H1     7.98197   -2.45161   10.90606
       H     6.31874   -0.79860   10.34531
       O     5.47819   -0.49272    9.99873
      H1     5.18317    0.15094   10.66842
       H    10.53963   -0.94698   16.67622
       O    11.31974   -1.47272   16.46739
      H1    11.19283   -1.43568   15.46223
       H     9.97666   -2.48603    7.72176
       O     9.42077   -1.89468    8.28481
      H1     8.51908   -2.27075    8.22459
       H    12.35751   -1.80246   10.99100
       O    12.34558   -1.33276   10.06267
      H1    11.36329   -1.32373    9.83406
       H     5.90686   -1.06216   13.20427
       O     6.69875   -0.58277   13.55235
      H1     7.27515   -1.21110   13.92789
       H    12.63656    5.60889   12.81346
       O    13.18360    5.26868   12.12112
      H1    13.46943    4.43848   12.49898
       H    11.11813    3.37479    8.66660
       O    11.06245    3.39961    9.62144
      H1    10.39328    2.72783    9.72237
       H     9.45102    5.13523   13.07829
       O     9.66563    4.86611   13.95904
      H1     8.84543    4.52038   14.30702
       H     6.04976   -2.85871    8.48512
       O     6.93449   -2.94487    8.04154
      H1     7.07922   -3.89367    7.87000
       H     4.99325    0.89946    8.33936
       O     4.45179    1.45263    7.76076
      H1     4.85479    2.25517    7.49033
       H    10.35368    4.76270   10.62474
       O    10.44536    5.52166   11.19744
      H1    11.41114    5.69501   11.23510
       H    12.43170    2.23281    9.70380
       O    13.07302    1.52242    9.71508
      H1    12.69795    0.71539   10.06851
       H     9.26193    0.69975   15.19220
       O     9.99629    0.59988   14.59267
      H1    10.56204    1.37881   14.72965
       H     8.14232    2.02368   10.02165
       O     8.92801    1.51818    9.90928
      H1     9.13746    1.14777   10.76414
       H     9.29793   -3.19710   14.04175
       O     9.97436   -2.48304   14.06819
      H1     9.96709   -2.09279   13.17936
       H    10.00865   -0.39105    6.52290
       O    10.27614    0.02921    5.72980
      H1    10.00049   -0.50778    5.00691
       H     6.66504    4.21884    9.92148
       O     6.91239    3.53408   10.55863
      H1     7.11678    4.04659   11.32194

