99
frame 9 | Written by MDAnalysis XYZWriter (release 2.4.3)
       H    -4.43211    5.37126  -17.29652
       O    -4.86315    5.70191  -16.49813
      H1    -4.30849    5.53340  -15.69832
       H    -8.66014   -4.78983  -15.60830
       O    -8.77185   -5.43685  -16.34906
      H1    -9.74233   -5.33633  -16.46565
       H    -6.51814   -5.73339  -19.93137
       O    -6.60587   -6.42304  -19.27506
      H1    -5.67254   -6.75630  -19.10135
       H    -6.32599    0.54780  -14.67433
       O    -5.37511    0.57813  -14.62831
      H1    -5.16745    1.43800  -14.21739
       H    -3.36297   -3.08256  -17.65655
       O    -3.10002   -3.36127  -16.77157
      H1    -3.00094   -2.54104  -16.30581
       H    -9.38414    6.04210  -19.40887
       O   -10.10232    5.53914  -19.00790
      H1   -10.54237    6.14839  -18.38568
       H    -8.57763   -3.49175  -18.29555
       O    -9.43436   -3.57999  -18.73813
      H1    -9.29083   -4.28647  -19.33594
       H    -2.46117   -0.45915  -14.84576
       O    -2.83024   -1.29842  -14.62743
      H1    -3.62941   -1.20143  -14.08242
       H    -9.05976    5.15636  -13.22636
       O    -9.17012    5.93934  -13.80053
      H1    -8.86246    5.71047  -14.67124
       H    -6.18494   -3.40797  -16.73069
       O    -6.54100   -3.02849  -17.52580
      H1    -5.86757   -3.25597  -18.13338
       H   -14.96101    0.19036  -19.26804
       O   -14.12330    0.06859  -18.78462
      H1   -14.35069   -0.34191  -17.92600
       H    -4.14850    5.92913  -19.60167
       O    -4.16645    5.06031  -19.19245
      H1    -3.91069    4.45957  -19.91525
       H    -6.84144   -2.57367  -13.36285
       O    -5.91935   -2.32933  -13.17472
      H1    -6.04046   -1.51030  -12.64447
       H    -9.19932    0.73234  -15.28404
       O    -8.69590    0.02155  -14.86380
      H1    -9.14691   -0.72017  -15.20548
       H    -9.58639    3.69578  -18.11703
       O    -9.02553    2.95616  -17.80892
      H1    -9.58739    2.34289  -17.25644
       H    -5.83904   -1.31352  -17.31056
       O    -5.09764   -0.73340  -17.18772
      H1    -5.01684   -0.47726  -16.27657
       H    -4.59376    3.28648  -18.44503
       O    -4.56749    2.40476  -18.05833
      H1    -5.22561    1.84030  -18.61197
       H    -0.09737   -0.73827  -19.40960
       O     0.64421   -1.06071  -18.88347
      H1     0.34377   -1.90107  -18.37654
       H    -1.46651    2.79187  -17.30475
       O    -1.51211    3.60884  -16.75921
      H1    -0.70453    3.55098  -16.26273
       H    -9.67581   -0.00155  -13.33973
       O   -10.19017    0.26952  -12.57058
      H1   -10.00279    1.22756  -12.57527
       H    -2.41547    5.22364  -14.69926
       O    -3.13215    4.58940  -14.58285
      H1    -2.98785    3.94208  -15.28687
       H    -6.62289    5.06429  -16.23245
       O    -7.48182    4.68015  -16.09544
      H1    -7.81412    4.08884  -16.70994
       H    -0.22395    0.23504  -15.73600
       O    -1.09301    0.53881  -15.47969
      H1    -0.96994    0.89966  -14.59971
       H    -2.12873    0.78181  -17.15252
       O    -2.22474    1.28436  -17.96540
      H1    -3.16610    1.56348  -18.05152
       H   -12.45653   -4.03081  -17.54711
       O   -11.60802   -3.98917  -17.11919
      H1   -10.90906   -3.89937  -17.84072
       H   -11.39446   -1.98713  -16.81420
       O   -11.23165   -1.11166  -16.46774
      H1   -12.14723   -0.77763  -16.27418
       H   -13.14280    4.31153  -18.04368
       O   -13.09127    4.30952  -17.06260
      H1   -12.48064    4.99293  -16.89890
       H    -6.03304    0.00564  -18.84151
       O    -5.96565    0.42763  -19.67752
      H1    -6.86309    0.73663  -19.87470
       H    -2.30168    6.42348  -18.27449
       O    -1.79829    6.95061  -17.66227
      H1    -0.88148    6.77764  -17.92512
       H    -9.24389   -3.76004  -13.78646
       O    -8.32517   -3.70846  -14.01858
      H1    -7.93935   -4.50190  -13.62296
       H   -11.63747    2.23765  -16.21681
       O   -10.87897    1.67113  -16.33644
      H1   -11.16727    0.82285  -16.59805
       H    -5.26536   -3.29351  -14.56916
       O    -5.43790   -3.96569  -15.36979
      H1    -4.64054   -3.89780  -15.90323
       H    -7.36239    3.81854  -14.14132
       O    -7.14424    3.77972  -13.22096
      H1    -6.54751    4.58557  -13.08644

