99
frame 10 | Written by MDAnalysis XYZWriter (release 2.4.3)
       H    -3.06655   -3.18739   11.93523
       O    -3.50828   -2.47742   12.37514
      H1    -2.84299   -1.83057   12.70601
       H     4.68645   -1.69241   12.70152
       O     4.66815   -2.32202   11.95377
      H1     5.14037   -1.88141   11.21381
       H    -0.38476   -6.11260    6.38489
       O     0.05099   -6.52442    7.13985
      H1    -0.71260   -6.96078    7.60395
       H     3.21167   -2.92335    7.89315
       O     3.80390   -3.63717    7.69700
      H1     3.42649   -4.35106    8.21305
       H     1.96626   -6.72749   14.54162
       O     2.83744   -6.82180   15.00449
      H1     3.51558   -6.77322   14.26951
       H    -3.60962   -5.85564   12.20990
       O    -3.33700   -5.28283   11.45225
      H1    -4.13223   -5.08256   10.95829
       H    -1.36719   -0.58261   12.72467
       O    -1.63471   -0.87954   13.61027
      H1    -2.07727   -0.15416   14.01119
       H    -0.01282   -6.62530   13.44535
       O     0.68583   -6.00707   13.77072
      H1     0.96429   -5.63141   12.94001
       H     0.34027   -3.71896    7.03244
       O    -0.45027   -3.18491    7.02326
      H1    -0.25873   -2.24763    6.81124
       H    -2.95866   -8.35883   10.71148
       O    -2.22780   -7.67862   10.45620
      H1    -2.49984   -6.77325   10.76959
       H    -1.33533   -8.81739   12.98919
       O    -0.91921   -7.97107   12.80310
      H1    -1.22151   -7.75382   11.92213
       H     1.97656    0.96788   10.15602
       O     1.69562    0.25217   10.76269
      H1     2.60255   -0.08503   11.06024
       H     0.91128   -3.20694   14.66984
       O    -0.06070   -2.97651   14.60438
      H1    -0.18191   -2.04040   14.42592
       H    -0.19353   -2.61691   10.95795
       O     0.36991   -2.66136   11.75491
      H1    -0.16983   -3.04220   12.42215
       H    -1.98160   -3.37598   15.36769
       O    -2.67181   -3.88807   15.72408
      H1    -2.57495   -4.65859   15.13879
       H     3.25575   -0.16564   13.80225
       O     4.19954   -0.12782   13.95884
      H1     4.31385   -0.31539   14.90287
       H     2.65807   -4.68972   11.21038
       O     1.67699   -4.95218   11.18167
      H1     1.28647   -4.11178   11.44186
       H     1.68262   -0.49681   15.36184
       O     1.24061   -0.59423   16.22608
      H1     1.96729   -0.65836   16.88311
       H    -2.16352   -2.75930    9.44683
       O    -1.22479   -2.55970    9.65186
      H1    -0.84458   -2.85626    8.82420
       H     1.16503   -0.70398    6.56082
       O     0.31941   -0.74300    6.12900
      H1     0.19281    0.09660    5.72291
       H    -5.12564   -2.82746   13.31497
       O    -5.78862   -3.36090   13.79177
      H1    -6.48852   -2.79193   14.06261
       H    -5.14482   -3.06167    9.58545
       O    -4.45778   -2.41051    9.56619
      H1    -4.97424   -1.61699    9.89486
       H     4.88993   -3.98471   11.72871
       O     4.70062   -4.94050   11.66615
      H1     5.37201   -5.30947   11.02558
       H    -3.76582    0.99096    7.95244
       O    -3.83707    0.08416    7.66770
      H1    -4.07947   -0.44033    8.45102
       H     3.15368   -0.29989    7.39600
       O     2.40525   -0.82790    7.64355
      H1     1.76452   -0.22198    8.09917
       H    -2.42178   -2.60847    6.47842
       O    -3.11028   -2.75470    5.89348
      H1    -3.78668   -2.07691    5.91307
       H    -0.35147    2.23305    7.84546
       O     0.47418    2.25271    7.32011
      H1     0.62185    3.17273    7.10028
       H     3.51723   -3.69925   14.69872
       O     2.57329   -3.89402   14.46725
      H1     2.44823   -4.86542   14.55640
       H     0.21644   -4.18386   16.21133
       O     0.11698   -5.08989   16.57957
      H1     0.34394   -5.70018   15.89127
       H    -1.14052   -0.67189   10.68824
       O    -1.06380    0.05861   11.26493
      H1    -0.12555    0.23215   11.10662
       H     1.43044   -1.23508   12.81695
       O     1.56421   -0.50630   13.44107
      H1     1.47536    0.27028   12.86007
       H     1.57777   -6.44632    8.29977
       O     2.30427   -6.28893    8.95677
      H1     1.82244   -5.79437    9.65125
       H    -1.96846    3.45486   11.46609
       O    -1.16928    2.92543   11.32177
      H1    -1.31166    2.01947   11.59509

