99
frame 9 | Written by MDAnalysis XYZWriter (release 2.4.3)
       H    17.61922   -1.96414   12.84133
       O    16.87890   -1.79911   13.44229
      H1    17.21949   -1.29521   14.16324
       H     8.21353   -3.28183   17.55514
       O     8.78622   -3.55997   16.84189
      H1     9.58312   -2.99965   17.00143
       H    13.76869   -6.34044   19.35915
       O    13.83915   -7.12914   19.88557
      H1    14.76816   -7.39042   19.70866
       H    16.24038   -1.65381   18.32142
       O    16.47230   -0.76805   17.96775
      H1    15.59399   -0.36934   18.16896
       H    18.49591    0.13334   15.66946
       O    17.66454   -0.38594   15.62438
      H1    17.43228   -0.57079   16.56253
       H    12.72641   -1.87417   13.21584
       O    12.66903   -0.94079   13.25908
      H1    11.71028   -0.81671   13.07702
       H    15.92156    0.25296   14.20463
       O    15.02670    0.34900   14.52849
      H1    14.53535   -0.10303   13.82343
       H    14.95173   -7.45618   15.22598
       O    15.08880   -6.89166   14.45588
      H1    14.20865   -6.96770   14.03444
       H    12.90210   -4.13141   19.23161
       O    13.73147   -4.56888   18.97978
      H1    14.51026   -4.11722   19.21307
       H    16.98196   -7.52579   18.86787
       O    16.39250   -7.92524   19.54396
      H1    16.27336   -8.87389   19.37145
       H    19.06304   -5.30579   18.36234
       O    19.41795   -4.37707   18.40336
      H1    19.73025   -4.43826   19.34606
       H    16.82460   -3.89788   18.87949
       O    16.13585   -3.35785   19.21299
      H1    16.23312   -3.24697   20.18354
       H    11.24639   -7.13183   16.34141
       O    10.92717   -6.59370   15.61047
      H1    11.20214   -5.70911   15.87965
       H    14.60897  -10.76661   18.91388
       O    15.37818  -10.18972   18.56160
      H1    16.26744  -10.61974   18.76481
       H    14.47260   -9.15431   17.27959
       O    13.92211   -8.92685   16.48041
      H1    12.98384   -9.11566   16.72326
       H    18.74597   -4.37804   14.76339
       O    18.02900   -4.32424   14.05301
      H1    17.68892   -3.40645   14.01786
       H    16.68127    2.78572   17.62431
       O    17.04128    2.45471   18.46635
      H1    18.00298    2.63263   18.38528
       H    18.66366    0.81105   20.20457
       O    18.69353    0.22178   19.44401
      H1    18.01437    0.58718   18.86428
       H    10.53963   -0.94698   16.67622
       O    11.31974   -1.47272   16.46739
      H1    11.19283   -1.43568   15.46223
       H    13.35456    1.30468   18.57322
       O    12.94109    1.49177   19.41703
      H1    13.02495    0.63410   19.77983
       H     8.78334   -5.25892   19.52973
       O     8.77490   -5.97014   18.83476
      H1     8.81123   -5.48268   18.02202
       H    12.05801   -3.41462   16.86516
       O    12.60262   -4.10540   16.59666
      H1    13.16241   -4.20647   17.40354
       H    18.19445   -7.92240   13.97978
       O    17.43732   -8.36609   14.38027
      H1    16.65314   -7.85724   14.14498
       H    15.77042   -5.68216   15.61693
       O    16.27717   -5.05387   16.19450
      H1    17.01604   -4.89015   15.62725
       H     9.95603    1.88280   19.47258
       O    10.25092    1.74936   18.56979
      H1    11.21000    1.58296   18.65916
       H    14.96369    2.00511   15.88267
       O    15.28617    2.91711   16.12190
      H1    14.53254    3.47865   16.22760
       H    18.95942   -5.67801   13.54777
       O    19.28069   -6.54328   13.24737
      H1    20.20549   -6.60972   13.55895
       H    13.04781   -0.44684   17.05702
       O    13.87921    0.00090   17.13833
      H1    14.28524   -0.26581   16.26973
       H    18.29271  -10.79735   20.17609
       O    18.09038  -10.82002   19.22227
      H1    18.48669  -10.00432   18.89688
       H    14.32120   -3.48819   15.23899
       O    14.51496   -3.30049   14.30272
      H1    15.40559   -2.89914   14.18489
       H    12.16421   -4.10917   12.12469
       O    12.90719   -3.49647   11.93520
      H1    13.49421   -3.53925   12.62829
       H    18.76886   -7.28741   17.34142
       O    18.14780   -6.66750   17.73994
      H1    17.51350   -6.41305   17.05801
       H    19.62751    2.45682   16.47256
       O    19.66610    2.24698   15.53808
      H1    19.09259    2.85705   15.07231

