99
frame 10 | Written by MDAnalysis XYZWriter (release 2.4.3)
       H    -6.77307   -8.79813    3.83601
       O    -6.70450   -8.79821    4.84539
      H1    -7.57310   -8.46273    5.13393
       H    -7.77163   -7.93658    8.72701
       O    -8.67630   -8.12894    8.41918
      H1    -8.87369   -9.08148    8.67620
       H    -6.44372   -4.63519    5.91773
       O    -7.19888   -4.36568    5.36890
      H1    -7.07896   -3.48504    5.00826
       H    -0.38476   -6.11260    6.38489
       O     0.05099   -6.52442    7.13985
      H1    -0.71260   -6.96078    7.60395
       H    -8.88700  -11.89010    6.06370
       O    -9.66433  -12.10367    5.56066
      H1   -10.35023  -12.36977    6.19867
       H    -9.33673  -11.31079    9.43224
       O    -8.53784  -10.75429    9.59159
      H1    -7.98837  -11.16244    8.87309
       H    -8.45741  -10.60800   11.48365
       O    -8.02485  -10.43114   12.28694
      H1    -7.08682  -10.53794   12.06562
       H    -3.54767  -11.10118    2.53530
       O    -3.80988  -10.18033    2.34015
      H1    -3.17471   -9.53644    2.62492
       H    -7.66852   -3.16156    8.69473
       O    -7.35671   -3.49673    9.51313
      H1    -6.76242   -4.19128    9.15988
       H    -2.95866   -8.35883   10.71148
       O    -2.22780   -7.67862   10.45620
      H1    -2.49984   -6.77325   10.76959
       H    -5.43136   -7.48749    4.85771
       O    -4.59157   -7.02618    5.05968
      H1    -4.63940   -6.20437    4.56303
       H    -5.79228   -8.15707   10.29869
       O    -6.11405   -7.79863    9.46758
      H1    -5.72100   -8.46503    8.84154
       H    -3.55691  -12.26681    9.35016
       O    -4.06498  -12.92577    9.81374
      H1    -3.43571  -13.61272    9.99710
       H    -3.89476  -12.86024    1.61602
       O    -3.75663  -13.02285    2.54705
      H1    -4.52080  -13.54612    2.84992
       H   -10.30580  -10.85974    4.64280
       O   -10.64231  -10.02421    4.32707
      H1   -10.04399   -9.71718    3.64298
       H    -0.38670  -10.34902    7.55777
       O    -0.83923  -10.39930    6.71708
      H1    -0.27790  -10.96021    6.14098
       H    -4.83004  -12.00229   11.46974
       O    -5.15476  -11.26731   12.04846
      H1    -4.83043  -11.58864   12.85657
       H    -2.73807   -7.86279    6.02048
       O    -2.42822   -7.92644    6.90902
      H1    -1.70959   -8.53320    6.88855
       H    -3.47754  -13.71401    7.26034
       O    -3.02070  -14.49486    6.94657
      H1    -3.69715  -15.14429    6.88625
       H     0.27608   -9.53748   10.09789
       O    -0.13827   -9.50630    9.24097
      H1    -0.90648   -8.86650    9.35116
       H    -4.21802   -8.86091    7.36319
       O    -5.04944   -9.37108    7.41574
      H1    -5.44720   -9.16024    6.55624
       H    -5.12667   -5.38814    8.41394
       O    -5.34917   -5.19969    9.35956
      H1    -5.71396   -6.06403    9.68420
       H    -6.62488   -5.95286    2.93841
       O    -7.60473   -6.00534    2.91073
      H1    -8.01598   -5.50554    3.62286
       H    -4.80833   -9.60936   11.80363
       O    -4.54809   -8.68712   11.51168
      H1    -4.74561   -8.12616   12.31667
       H    -1.96348   -7.21657    3.18360
       O    -2.58512   -7.87021    3.43320
      H1    -3.39045   -7.58547    3.82661
       H    -2.61910  -13.39773    3.75379
       O    -2.02592  -13.68359    4.47547
      H1    -2.62865  -13.91219    5.26579
       H    -4.19292   -4.29036    6.62878
       O    -4.84069   -4.94180    6.74306
      H1    -4.51368   -5.78367    6.47841
       H    -4.44059  -12.09624    5.75821
       O    -5.35204  -12.21918    5.46932
      H1    -5.28066  -12.29143    4.53695
       H    -7.25754  -13.15437    7.57654
       O    -7.34785  -12.21597    7.35510
      H1    -6.74341  -12.11735    6.62416
       H    -5.12260   -9.17275    1.96082
       O    -5.85984   -8.60074    1.74235
      H1    -5.72987   -8.28634    0.85766
       H    -9.30352   -7.98748    6.67218
       O    -9.48580   -7.90712    5.72815
      H1   -10.05125   -8.70483    5.47742
       H    -2.48648  -10.93435    7.10714
       O    -3.26275  -11.43405    7.42318
      H1    -3.97725  -10.84129    7.50133
       H    -4.47879   -5.41665    2.26044
       O    -4.74706   -5.12144    3.15039
      H1    -5.04597   -4.23971    3.00327

