99
frame 9 | Written by MDAnalysis XYZWriter (release 2.4.3)
       H   -16.85874   12.58017  -18.81280
       O   -17.09806   11.68267  -19.19024
      H1   -16.44061   11.09724  -18.78162
       H   -13.19902   18.80906  -18.31744
       O   -12.49485   18.22393  -18.63435
      H1   -11.67117   18.65394  -18.42271
       H   -15.26591   12.65546  -12.32318
       O   -14.97522   11.78154  -11.90156
      H1   -15.67417   11.46439  -11.33979
       H   -15.86720   15.84639  -12.35341
       O   -16.34735   16.70310  -12.28014
      H1   -16.16406   17.07814  -11.44757
       H   -19.91032   15.83353  -17.53011
       O   -19.61524   14.94709  -17.93003
      H1   -19.20140   14.48819  -17.19674
       H   -17.24486   16.71705  -14.07713
       O   -17.53437   16.44569  -14.97548
      H1   -18.11472   17.07122  -15.45187
       H   -16.82943   18.40874  -17.36317
       O   -15.92464   18.13741  -17.52959
      H1   -15.70749   17.36911  -16.93107
       H   -12.05707   15.67691  -13.93092
       O   -12.61220   14.86748  -13.77350
      H1   -12.01660   14.15056  -14.01773
       H   -15.25923   19.89475  -16.10580
       O   -15.01803   20.06744  -15.21107
      H1   -14.38556   19.37334  -14.89784
       H   -14.94515   10.44382  -19.53171
       O   -15.21601    9.96407  -18.73856
      H1   -14.80636    9.09567  -18.88312
       H   -17.99768   10.87601  -17.81678
       O   -18.39108   10.88086  -16.93730
      H1   -18.10802   10.08549  -16.43301
       H   -19.07519   11.42400  -13.35789
       O   -18.20774   11.53972  -12.89915
      H1   -17.95592   12.33151  -13.37133
       H   -14.33596   14.52489  -13.35635
       O   -15.30839   14.49838  -13.24462
      H1   -15.73456   14.29491  -14.10954
       H    -6.29134   16.31824  -17.08443
       O    -7.11995   16.80742  -16.97798
      H1    -7.73134   16.29461  -17.44117
       H   -15.63231   16.58055  -20.33519
       O   -15.16686   16.49731  -19.49893
      H1   -15.67393   17.19281  -18.94426
       H   -11.78088   16.94600  -17.28358
       O   -11.35155   16.15332  -16.95935
      H1   -12.12496   15.64129  -16.74370
       H   -12.89412   13.37926  -17.36832
       O   -13.38797   14.22062  -17.25320
      H1   -13.53404   14.51699  -18.23302
       H   -10.24775   12.31035  -16.89633
       O   -10.88241   12.27195  -17.62967
      H1   -11.22653   11.31494  -17.71419
       H    -8.33646   12.60553  -18.95070
       O    -7.52375   12.58942  -18.43753
      H1    -7.67829   13.16902  -17.61715
       H   -10.63012   15.55732  -18.54008
       O   -10.16728   15.17221  -19.29069
      H1    -9.69947   15.90880  -19.68059
       H   -15.10798   11.25050  -15.00839
       O   -15.16031   10.49226  -14.46375
      H1   -15.39218   10.94339  -13.65462
       H   -18.94906   13.49162  -15.55159
       O   -18.22363   13.30432  -16.17299
      H1   -18.34921   12.36763  -16.49360
       H   -19.24688   19.09514  -16.75739
       O   -18.30999   19.20418  -16.51358
      H1   -18.05490   19.99649  -17.01363
       H   -11.27056   16.94108  -15.11503
       O   -11.07833   17.12699  -14.13776
      H1   -11.89783   17.50540  -13.79480
       H   -17.84998   15.55573  -11.82038
       O   -18.60290   15.07416  -11.52106
      H1   -19.08209   14.85324  -12.36709
       H   -16.08998   15.11791  -18.60350
       O   -16.62289   14.36117  -18.29310
      H1   -17.50502   14.70544  -18.16994
       H   -14.95917   13.24261  -16.28181
       O   -15.53113   12.95779  -15.53479
      H1   -16.40853   13.18494  -15.92845
       H   -13.20866   10.16903  -17.05976
       O   -12.25559    9.91644  -17.19855
      H1   -11.84762    9.93947  -16.30470
       H   -10.53661   18.81434  -14.17175
       O   -10.21899   19.66555  -14.54401
      H1   -10.66143   20.33142  -13.95612
       H   -14.27515   17.25517  -14.61274
       O   -13.84584   17.76812  -13.92292
      H1   -14.50605   17.97986  -13.26622
       H    -9.89416   13.68539  -15.04901
       O   -10.74931   13.15145  -14.84974
      H1   -10.37054   12.37023  -14.41015
       H   -10.12637   19.90446  -16.66630
       O   -10.24970   19.80365  -17.62710
      H1    -9.48260   19.36925  -18.01921
       H   -14.45586   15.45836  -16.26965
       O   -14.90679   16.25329  -15.97293
      H1   -15.77962   15.93279  -15.70962

