99
frame 9 | Written by MDAnalysis XYZWriter (release 2.4.3)
       H    -5.95182    9.83014  -17.89235
       O    -6.86186    9.98222  -18.23070
      H1    -7.00657   10.93383  -18.37710
       H    -4.43211    5.37126  -17.29652
       O    -4.86315    5.70191  -16.49813
      H1    -4.30849    5.53340  -15.69832
       H    -4.55489   15.32511  -14.13718
       O    -4.16977   14.73306  -14.81723
      H1    -4.00557   15.34737  -15.55777
       H    -8.82204    7.91122  -16.46195
       O    -8.15565    8.53574  -16.13123
      H1    -7.88923    9.06810  -16.90485
       H     1.33592   14.21727  -13.22856
       O     1.94778   13.50855  -13.48542
      H1     1.57627   13.11671  -14.31547
       H    -1.35721   17.91487  -17.41646
       O    -0.47001   17.58456  -17.24033
      H1    -0.62922   16.63196  -17.18526
       H    -4.03415   16.83781  -17.38975
       O    -4.44774   16.03924  -17.20108
      H1    -4.74483   15.60690  -17.99628
       H    -4.76835   13.19336  -15.31768
       O    -5.00775   12.39602  -15.80225
      H1    -4.91916   11.64686  -15.22219
       H    -4.65852    7.67499  -17.32425
       O    -4.65401    8.51812  -17.81103
      H1    -4.15316    9.28470  -17.38712
       H    -2.14486   13.19094  -13.98861
       O    -1.40607   13.79652  -13.71093
      H1    -1.09748   13.34884  -12.92277
       H    -1.99602    7.36964  -15.84731
       O    -2.52296    7.36266  -14.99338
      H1    -3.45050    7.73270  -15.04218
       H    -1.47189   10.83896  -15.03179
       O    -1.16715   11.29154  -15.80037
      H1    -2.02236   11.23272  -16.37145
       H    -0.49044    4.47690  -17.94547
       O     0.08783    5.06357  -18.45404
      H1     0.95687    4.69425  -18.38855
       H    -5.10494   11.23370  -12.94007
       O    -4.83136   11.87418  -12.28035
      H1    -5.42667   12.63449  -12.54773
       H   -10.59704    9.20376  -14.50104
       O   -10.26030    9.87861  -15.14024
      H1    -9.38059    9.59785  -15.48592
       H    -4.14850    5.92913  -19.60167
       O    -4.16645    5.06031  -19.19245
      H1    -3.91069    4.45957  -19.91525
       H    -6.29134   16.31824  -17.08443
       O    -7.11995   16.80742  -16.97798
      H1    -7.73134   16.29461  -17.44117
       H    -0.14440   12.88922  -19.40776
       O     0.29007   13.56786  -18.87930
      H1    -0.33383   13.78527  -18.17823
       H     0.63036    8.59544  -16.28043
       O     0.89291    7.96471  -16.93991
      H1     1.32239    7.21534  -16.47798
       H    -7.28040   14.77960  -16.02273
       O    -7.63529   13.90709  -16.01022
      H1    -7.03518   13.30471  -15.51057
       H     2.28878    9.48530  -17.64972
       O     2.95771    9.67116  -18.35433
      H1     3.76036    9.52721  -17.86075
       H    -8.33646   12.60553  -18.95070
       O    -7.52375   12.58942  -18.43753
      H1    -7.67829   13.16902  -17.61715
       H    -2.41547    5.22364  -14.69926
       O    -3.13215    4.58940  -14.58285
      H1    -2.98785    3.94208  -15.28687
       H    -1.19497   14.50609  -16.05014
       O    -1.13283   14.80794  -16.95781
      H1    -2.00883   14.84905  -17.33860
       H    -7.35500   13.27923  -13.12190
       O    -6.52710   13.72944  -13.36019
      H1    -6.78292   14.49398  -13.93272
       H    -6.61358    8.37744  -12.98133
       O    -6.16827    7.98756  -13.78793
      H1    -6.93291    8.01953  -14.41915
       H    -2.30168    6.42348  -18.27449
       O    -1.79829    6.95061  -17.66227
      H1    -0.88148    6.77764  -17.92512
       H     1.72351   12.13556  -16.28414
       O     1.40267   11.91265  -15.36258
      H1     0.47113   11.84402  -15.56129
       H    -3.37525    9.68582  -14.04378
       O    -4.29171    9.88319  -14.40202
      H1    -4.86192    9.13351  -14.14546
       H    -1.25612    8.79802  -13.72777
       O    -1.58895    9.65909  -13.54686
      H1    -1.43572    9.79428  -12.59934
       H     1.55907   12.75110  -18.33282
       O     2.30160   12.29906  -17.91257
      H1     2.45929   11.40910  -18.34158
       H    -3.50196   10.82686  -18.20814
       O    -3.47871   10.87698  -17.24076
      H1    -4.11148   11.62141  -17.01409
       H    -6.13353   15.18647  -19.92008
       O    -5.90775   14.81687  -19.09899
      H1    -6.45463   13.95756  -18.98912

