99
frame 9 | Written by MDAnalysis XYZWriter (release 2.4.3)
       H    14.94949  -13.65585    3.54799
       O    14.30001  -13.20787    2.96209
      H1    13.52222  -13.82373    2.83814
       H     8.66170  -18.22946   -5.34955
       O     8.00985  -18.82771   -5.70037
      H1     7.14380  -18.33361   -5.71297
       H    17.16201  -15.63167    0.01309
       O    17.00949  -14.74015   -0.32543
      H1    16.39904  -14.88907   -1.09813
       H     9.28766  -12.94534   -1.44948
       O     8.49870  -12.83369   -2.01140
      H1     8.85452  -12.46556   -2.81294
       H    11.77463  -13.86801    1.56590
       O    11.73485  -14.32107    2.42566
      H1    11.89507  -15.24082    2.11757
       H    13.84130  -17.71652   -3.71857
       O    12.89286  -17.84254   -3.91236
      H1    12.86951  -17.56681   -4.83007
       H    14.26717  -18.51119   -6.74420
       O    13.42323  -19.04264   -6.90061
      H1    12.75258  -18.55018   -6.47367
       H     7.21849  -14.16430    5.38769
       O     6.97207  -14.90087    4.80051
      H1     7.74555  -14.98533    4.21830
       H     8.55006  -16.75285   -0.81930
       O     9.22130  -16.10199   -0.64667
      H1     8.80148  -15.57903    0.06054
       H     8.45460  -14.12572   -3.36302
       O     8.26542  -14.82305   -4.04534
      H1     8.58155  -14.43579   -4.89198
       H    11.23205  -18.99898   -0.57353
       O    11.10654  -19.93542   -0.38911
      H1    10.62649  -20.33453   -1.09598
       H     8.02504  -17.79749   -2.49972
       O     7.39218  -17.81734   -1.77131
      H1     6.56954  -17.58124   -2.30934
       H     5.07543  -18.19708    3.17583
       O     5.13836  -18.91353    2.49488
      H1     4.70295  -18.60028    1.71364
       H     8.65363  -13.48869    2.60963
       O     8.87516  -14.36024    2.22006
      H1     9.86180  -14.42457    2.19608
       H    15.09795  -19.30058   -1.72952
       O    15.20847  -18.34633   -1.72619
      H1    15.79617  -18.20661   -0.96106
       H    14.09588  -12.45227   -1.07784
       O    13.45903  -13.09651   -0.74504
      H1    13.59387  -13.92385   -1.27196
       H     8.87688  -18.91628   -7.29297
       O     9.46063  -18.69782   -8.05326
      H1     9.81360  -19.55328   -8.29985
       H     6.54870  -15.41681   -3.66293
       O     5.63387  -15.78898   -3.33022
      H1     5.16549  -15.03426   -2.91502
       H    10.60016  -17.47788   -7.27213
       O    11.11915  -16.95123   -6.65710
      H1    10.52626  -16.17627   -6.38908
       H    15.56364  -15.67989   -2.87298
       O    15.04187  -15.17898   -2.29255
      H1    14.27208  -15.63462   -1.99609
       H     2.56566  -18.45951    0.51967
       O     3.51560  -18.26002    0.42441
      H1     3.81655  -18.61147   -0.45172
       H    10.19575  -17.43524   -3.84863
       O     9.23098  -17.29417   -3.87489
      H1     9.15648  -16.34497   -3.73353
       H    13.45622  -12.95752   -4.42938
       O    13.48035  -13.84662   -4.06011
      H1    14.33278  -13.87446   -3.57722
       H    12.55175  -17.56212   -2.04895
       O    12.27297  -16.99112   -1.28385
      H1    11.37403  -16.62150   -1.32007
       H    13.97007  -18.27414    4.92752
       O    14.35016  -18.52514    5.82292
      H1    13.57456  -18.52962    6.36949
       H    17.85384  -17.87922    0.99464
       O    17.03737  -17.53679    0.57879
      H1    16.40116  -17.48190    1.32998
       H     9.95952  -18.94255    5.36006
       O     9.43193  -18.14547    5.30127
      H1     9.13884  -17.84904    6.16862
       H    14.24955  -17.37054    2.38429
       O    15.01100  -17.84566    2.73187
      H1    15.79841  -17.28697    3.04264
       H    12.82240  -16.77497    0.56730
       O    12.91792  -16.73856    1.51905
      H1    12.17060  -17.25016    1.94383
       H    10.48922  -11.96733    0.13017
       O    10.86053  -12.86993    0.12324
      H1    11.71616  -12.77037   -0.32711
       H    10.05170  -18.18594    1.95569
       O    10.72310  -18.11460    2.60017
      H1    10.15132  -18.01731    3.43171
       H    15.91346  -17.40264   -4.51708
       O    16.40200  -17.18023   -3.72874
      H1    16.07154  -17.68806   -2.97843
       H     6.58857  -19.75087    5.13816
       O     6.72409  -18.96598    5.70017
      H1     7.71302  -18.74307    5.65351

