99
frame 9 | Written by MDAnalysis XYZWriter (release 2.4.3)
       H     7.14343  -17.99883   14.51654
       O     7.15393  -17.07754   14.31936
      H1     6.24140  -16.78014   14.25769
       H    -1.66337  -17.85907   15.89458
       O    -1.41919  -18.27436   15.05151
      H1    -1.15488  -19.23936   15.30271
       H     1.11953  -13.62263    8.03711
       O     1.59450  -13.10869    8.70985
      H1     2.04725  -12.25178    8.30631
       H     0.61763  -11.43991   10.95450
       O     0.61746  -12.40191   11.00951
      H1     0.81018  -12.71418   10.12194
       H     3.28286  -20.02130   12.21250
       O     2.80969  -19.38200   12.72828
      H1     3.32601  -19.35900   13.56859
       H     5.00859  -13.25904   12.58586
       O     5.82006  -13.72265   12.82409
      H1     6.01879  -14.28371   12.06243
       H     4.72678  -19.98626   10.06801
       O     4.86309  -19.14680    9.64473
      H1     5.13695  -18.53627   10.32841
       H     8.81357  -18.30979   10.89437
       O     7.98913  -18.85731   11.12614
      H1     8.27807  -19.71440   11.36759
       H     5.81111  -11.54198   10.04648
       O     5.19451  -12.12903    9.55160
      H1     5.81655  -12.76962    9.16279
       H     7.19239  -15.99986   11.30160
       O     7.87317  -15.29785   11.39588
      H1     8.05168  -15.26325   12.32556
       H    -2.05973  -16.29428    8.97292
       O    -2.33261  -15.39562    8.65689
      H1    -2.46840  -15.44534    7.71345
       H    -4.35123  -15.46854   10.63402
       O    -3.97287  -15.26858   11.53110
      H1    -3.13961  -15.71892   11.47673
       H     4.09092  -17.51031    7.04679
       O     4.76854  -17.16962    7.65177
      H1     4.84196  -17.92194    8.24382
       H    -1.47106  -18.02958   10.08358
       O    -2.17011  -17.61467   10.65794
      H1    -2.18556  -18.28555   11.28618
       H     3.57239  -19.46537   15.61139
       O     4.15274  -18.82591   15.18931
      H1     4.36408  -18.22872   15.92443
       H     7.81911  -15.89693   15.40089
       O     8.25434  -15.07808   15.73416
      H1     7.59126  -14.54711   16.24883
       H     3.21192  -17.63362    5.15450
       O     2.81405  -18.18554    5.84811
      H1     1.98315  -17.79143    6.04985
       H     2.99125  -17.66162   12.15473
       O     2.88498  -16.72957   12.21034
      H1     3.00584  -16.30965   11.31554
       H    -1.06022  -12.72197   11.77886
       O    -1.80708  -13.06609   12.34066
      H1    -2.65246  -12.86734   11.93675
       H    -0.60039  -14.78247    7.93006
       O     0.02076  -14.78180    7.21814
      H1    -0.17634  -13.95436    6.76696
       H     1.99943  -13.99312   14.92106
       O     1.38231  -14.59283   15.35810
      H1     1.57661  -15.42820   15.00887
       H    -0.38271  -18.29191    7.68228
       O    -0.78312  -18.61994    8.53188
      H1    -1.13940  -19.52899    8.29885
       H     1.26286  -18.34626   17.74580
       O     1.52899  -17.55468   17.16958
      H1     1.11283  -17.72532   16.32012
       H     3.59215  -16.00754    9.41586
       O     3.13666  -15.34602    9.95024
      H1     2.88688  -14.64387    9.34854
       H     3.37419  -11.89925   14.89447
       O     3.14000  -12.68156   14.37628
      H1     2.85818  -12.31563   13.52634
       H     6.25241  -12.75532   17.31790
       O     6.34545  -13.70222   17.29935
      H1     5.53229  -14.00229   16.84919
       H     3.11595  -15.65463   17.58818
       O     3.97288  -15.44284   17.15070
      H1     3.89890  -15.77253   16.24444
       H     1.12226  -17.18853   13.44201
       O     0.70616  -17.14365   14.29121
      H1    -0.05569  -17.74593   14.34737
       H     2.17113  -12.21318   11.45424
       O     3.03502  -11.85600   11.76957
      H1     3.63559  -12.06440   11.07268
       H     6.72533  -17.75700   11.30850
       O     5.99423  -17.06717   11.35638
      H1     5.68625  -17.19391   12.25788
       H     5.08078  -14.98529   13.69853
       O     4.68201  -15.72776   14.20277
      H1     3.97916  -15.90215   13.51841
       H    -1.84215  -14.49056   13.48098
       O    -1.93100  -15.10632   14.22836
      H1    -1.05012  -15.27434   14.55480
       H     7.01313  -15.60900    6.20374
       O     7.10104  -15.93197    7.12145
      H1     6.34627  -16.48973    7.25222

