99
frame 11 | Written by MDAnalysis XYZWriter (release 2.4.3)
       H    -8.17257   11.48904  -12.87574
       O    -8.66981   12.24787  -13.26863
      H1    -9.22857   12.48120  -12.48103
       H    -5.22762   14.10963  -10.58786
       O    -4.70455   13.33963  -10.65765
      H1    -4.60974   13.07677  -11.54981
       H    -5.64020   16.46771  -16.89515
       O    -5.44158   16.00847  -16.11322
      H1    -4.48779   15.95683  -15.99646
       H    -2.34091   16.17673  -12.79853
       O    -2.83101   16.90729  -13.13269
      H1    -2.43097   17.13587  -14.00142
       H     0.13901   15.28663  -14.36463
       O     0.56510   15.04269  -15.18583
      H1     0.18373   14.17519  -15.33614
       H     0.00265   12.45817  -12.25526
       O    -0.74490   12.01328  -12.70710
      H1    -1.28948   11.56764  -12.07373
       H    -3.18529    7.93017  -12.69864
       O    -3.71057    7.26012  -12.27276
      H1    -4.43002    6.97101  -12.85396
       H    -6.25775   14.10505  -16.31726
       O    -6.57759   13.29158  -16.70424
      H1    -6.07864   12.57965  -16.23774
       H    -5.54842    7.82264  -18.10616
       O    -5.15149    8.47124  -18.63943
      H1    -4.39899    8.88031  -18.22382
       H    -2.96427   13.42507  -14.41818
       O    -2.08353   13.38443  -14.85838
      H1    -1.42687   12.85387  -14.32077
       H    -6.60177    6.78973  -13.85974
       O    -6.38703    6.03915  -13.24997
      H1    -5.76868    5.58660  -13.86175
       H     0.36114    9.09670  -12.93300
       O     1.07723    9.73106  -12.63077
      H1     0.66271   10.62634  -12.56748
       H    -1.03261    9.39905  -16.68997
       O    -0.28490    9.76771  -17.26543
      H1    -0.68136   10.08076  -18.00857
       H    -7.44336   15.31626  -11.40725
       O    -8.23292   15.84126  -11.30623
      H1    -8.20715   16.24757  -10.43341
       H    -6.04470   10.69333   -9.56465
       O    -5.62070   11.33417   -9.00578
      H1    -5.20342   12.02851   -9.52748
       H    -7.57431    9.38897  -11.72026
       O    -7.88138    9.70618  -12.53000
      H1    -8.77652    9.38832  -12.66698
       H    -4.65810   12.09076  -13.87699
       O    -4.44531   12.92308  -13.46323
      H1    -5.28863   13.34949  -13.53453
       H    -6.58720   16.66602  -14.70879
       O    -7.27199   16.54383  -14.07176
      H1    -7.94100   16.06792  -14.56356
       H    -1.64428    9.41521  -10.98330
       O    -2.20718   10.20806  -11.19798
      H1    -2.48300   10.55494  -10.31226
       H    -6.50585   15.18480   -8.67277
       O    -6.10525   15.45064   -9.55146
      H1    -5.44781   16.09694   -9.14285
       H    -9.72219   15.29004  -15.93831
       O    -9.28298   14.89095  -15.11980
      H1    -9.15981   13.95154  -15.27219
       H    -8.65198   12.25970  -19.06654
       O    -7.68250   12.34041  -18.84964
      H1    -7.39331   12.82055  -18.02576
       H    -2.49441   13.04940  -16.69263
       O    -2.41290   12.85763  -17.68087
      H1    -2.85881   13.64790  -18.08939
       H    -7.57553   13.59394  -13.04603
       O    -6.74309   14.15161  -13.02748
      H1    -6.90959   15.04297  -13.40657
       H    -7.04790    8.98726  -14.02199
       O    -6.81503    8.62686  -14.86915
      H1    -7.68411    8.46337  -15.31523
       H    -4.21229    7.59987  -10.57535
       O    -4.44230    7.74214   -9.68238
      H1    -3.93122    8.53283   -9.29586
       H    -6.42001    8.30231   -9.87706
       O    -6.97780    9.10145   -9.77936
      H1    -7.59679    8.92023   -9.03821
       H    -4.26837   10.40888  -15.53707
       O    -5.15832   10.82572  -15.35891
      H1    -5.76308   10.10815  -15.15938
       H    -0.98581   14.36253  -12.91358
       O    -0.61535   15.23564  -12.74757
      H1    -0.64462   15.27269  -11.79297
       H    -2.40647    8.50471  -15.45185
       O    -2.62690    9.47815  -15.40742
      H1    -2.58399    9.66747  -14.44954
       H    -9.89212   11.93136  -14.71288
       O   -10.49840   12.04232  -15.48710
      H1   -10.69905   11.09203  -15.78697
       H    -2.60962   13.07450   -9.58414
       O    -1.95519   13.24315   -8.85762
      H1    -2.48178   13.58379   -8.13105
       H    -3.59679   10.48337  -19.21489
       O    -3.09763   10.17112  -18.44101
      H1    -2.87852   10.95526  -17.86793

