99
frame 11 | Written by MDAnalysis XYZWriter (release 2.4.3)
       H   -14.34478  -13.40602   -1.30173
       O   -14.47498  -14.34962   -1.55142
      H1   -15.44027  -14.38137   -1.47947
       H   -16.77486   -7.21153   -2.02046
       O   -16.16364   -6.71595   -1.43527
      H1   -15.30724   -7.20343   -1.53015
       H   -17.04659  -12.30601    1.75527
       O   -17.01328  -11.46775    1.31323
      H1   -16.39594  -10.97299    1.90206
       H   -17.37789  -14.21578   -3.62696
       O   -17.88865  -13.63206   -3.09813
      H1   -18.24237  -14.22449   -2.44990
       H   -16.89814  -15.69466    4.62699
       O   -17.50874  -14.96606    4.43555
      H1   -16.98506  -14.19941    4.71219
       H   -10.96845  -12.68948    0.32921
       O   -11.47815  -13.01201    1.12100
      H1   -10.67823  -13.09972    1.66072
       H   -17.53963  -18.90926    0.58375
       O   -16.74057  -18.32632    0.43143
      H1   -16.63595  -18.02277    1.30429
       H   -18.34513  -10.25200    0.97644
       O   -18.95889   -9.56290    0.58077
      H1   -19.45086  -10.14722   -0.09378
       H   -14.15315  -13.06002    1.62907
       O   -14.46337  -13.70214    2.24273
      H1   -13.69112  -14.02221    2.73051
       H   -17.68344  -11.88217    4.47229
       O   -18.60442  -11.86930    4.70545
      H1   -18.76282  -11.09028    5.25284
       H   -11.45398  -10.35610    4.03135
       O   -12.32710  -10.53104    3.68705
      H1   -12.74707  -10.76375    4.51389
       H   -13.93187  -10.01855   -2.85682
       O   -13.07046  -10.36667   -3.15888
      H1   -12.99197  -10.16061   -4.09083
       H   -17.91927  -14.53058    2.55435
       O   -17.90512  -14.07993    1.71892
      H1   -18.80884  -13.89926    1.41914
       H   -16.21671   -9.15078   -2.45026
       O   -15.49357   -9.59861   -2.00296
      H1   -15.86284  -10.50251   -1.79571
       H   -18.91764  -10.20228    3.55945
       O   -19.20733   -9.34090    3.38999
      H1   -19.29070   -9.28592    2.40634
       H   -16.79760  -12.56726   -2.09718
       O   -16.09479  -12.27016   -1.48170
      H1   -16.50312  -12.08379   -0.64466
       H   -15.36786   -8.99187    2.43660
       O   -15.08110   -9.88889    2.62004
      H1   -14.11803   -9.80964    2.78562
       H   -12.38478  -11.84474   -4.44215
       O   -12.11511  -12.60870   -4.98346
      H1   -12.95147  -13.16008   -4.76018
       H   -17.49577  -15.11326    0.20460
       O   -17.10390  -15.64058   -0.53782
      H1   -16.96639  -16.51422   -0.15920
       H   -16.52762  -14.00775   -6.57712
       O   -16.15247  -13.22832   -6.20468
      H1   -16.88421  -12.57625   -6.16049
       H   -14.84797  -13.55994   -4.62828
       O   -14.19685  -14.10500   -4.16366
      H1   -14.38777  -13.96419   -3.26095
       H   -15.21280  -12.42317    3.49688
       O   -15.69182  -12.60056    4.29846
      H1   -15.44907  -11.82226    4.81437
       H   -14.63458  -17.07963   -1.17950
       O   -14.91321  -17.41304   -2.02915
      H1   -15.15552  -18.31357   -1.85397
       H   -14.97855   -7.25744    1.70379
       O   -15.75465   -7.25315    2.26070
      H1   -16.53045   -7.26424    1.69366
       H   -18.24776  -17.63984   -1.51622
       O   -18.85730  -18.08060   -2.07235
      H1   -18.38359  -18.42375   -2.81025
       H   -12.89845   -8.23968   -1.88841
       O   -13.43899   -7.51215   -1.50481
      H1   -12.98917   -6.70333   -1.63710
       H   -18.51412   -7.91132   -3.15445
       O   -17.54579   -8.02309   -3.23122
      H1   -17.28151   -7.62502   -4.12736
       H   -18.44460   -7.90187    0.69128
       O   -17.82799   -7.11158    0.67558
      H1   -17.22676   -7.10493   -0.09551
       H   -12.10460  -16.24255   -1.00219
       O   -11.56785  -15.96248   -1.76850
      H1   -11.94612  -16.58346   -2.39946
       H   -15.53949  -15.45861   -4.10302
       O   -16.42445  -15.95008   -3.98889
      H1   -16.11637  -16.65053   -3.42178
       H   -10.63228   -8.98504   -2.25806
       O   -11.14463   -9.37307   -1.55322
      H1   -11.82447   -9.93032   -2.03385
       H   -13.89452  -15.47628   -0.10414
       O   -13.58632  -16.29099    0.34895
      H1   -13.55023  -15.91011    1.21010
       H   -13.18481   -7.44622    0.24080
       O   -13.21131   -7.11322    1.13453
      H1   -12.52993   -7.55427    1.61968

