99
frame 11 | Written by MDAnalysis XYZWriter (release 2.4.3)
       H    -8.74220   18.16139   -7.17378
       O    -8.73523   18.24618   -6.19167
      H1    -9.60652   18.54340   -5.90535
       H    -2.44245   16.88450   -1.57932
       O    -2.96890   17.31481   -0.90409
      H1    -2.66662   18.19467   -0.66586
       H     0.42734   14.35164   -1.51566
       O    -0.11764   13.93462   -2.21116
      H1    -0.83634   14.53966   -2.41737
       H    -2.29606   13.11407    3.30769
       O    -2.08105   13.99936    3.07380
      H1    -2.86981   14.23758    2.56871
       H    -8.00549   19.37537    2.26896
       O    -8.14569   18.60887    1.69813
      H1    -9.06796   18.40148    1.69318
       H    -6.59169   17.94565    4.27419
       O    -5.90318   17.36744    4.00103
      H1    -6.04532   17.23881    3.07901
       H    -2.04851   18.33169   -5.26278
       O    -1.21944   18.01184   -4.91036
      H1    -0.69434   17.89118   -5.72499
       H    -3.65753   10.00867   -3.40929
       O    -3.56058   10.84348   -2.91411
      H1    -3.90328   10.70657   -1.97829
       H    -8.10463   11.48678   -3.71350
       O    -7.93373   12.22791   -4.28922
      H1    -8.23199   11.95190   -5.16247
       H    -7.61048   13.36697    0.43304
       O    -7.17133   12.54221    0.33966
      H1    -6.34973   12.71261   -0.13168
       H    -2.21069   15.37680   -3.45268
       O    -1.58580   16.04274   -3.07148
      H1    -1.46569   16.67252   -3.81987
       H    -6.41372   17.39621   -2.73887
       O    -6.96219   18.16795   -2.62705
      H1    -6.46247   18.71461   -1.93891
       H    -8.70287   16.45368   -5.96667
       O    -8.81071   15.46312   -5.81753
      H1    -7.94258   15.07784   -5.89958
       H    -7.82333   15.43950   -2.61670
       O    -7.23477   14.76800   -2.21047
      H1    -7.63782   13.95154   -2.54517
       H    -4.06720   15.69177   -5.53801
       O    -4.75313   16.30868   -5.24931
      H1    -4.52101   16.34040   -4.27523
       H    -4.84137   11.86022   -3.73585
       O    -5.31231   12.68301   -3.83445
      H1    -6.21832   12.45733   -3.88917
       H    -9.77916   14.81011   -1.43335
       O    -9.95759   14.93523   -0.50673
      H1   -10.57870   15.68555   -0.53365
       H    -1.09114   12.60561   -0.34267
       O    -0.78134   11.92542    0.21079
      H1    -0.17116   11.37346   -0.22961
       H    -8.86904   16.07044   -4.22206
       O    -8.97600   16.31939   -3.27198
      H1    -8.39292   17.14940   -3.15738
       H    -6.47804   13.62107   -6.70106
       O    -6.32564   14.59758   -6.81568
      H1    -5.82010   14.91303   -6.05640
       H    -4.50188   14.14529    1.63601
       O    -3.97230   14.82966    1.15994
      H1    -4.42063   15.65221    1.11872
       H    -6.06485   13.00575    2.99955
       O    -5.39289   12.88898    2.30361
      H1    -5.90152   12.59622    1.54531
       H    -4.56896   11.47584   -0.44696
       O    -4.56211   10.50085   -0.33308
      H1    -3.81640   10.30908    0.20263
       H    -1.63440   15.65396    1.32930
       O    -1.14507   16.32700    0.86258
      H1    -1.89473   16.70053    0.35560
       H    -4.73786   13.31737   -1.65966
       O    -4.71359   13.14455   -0.74452
      H1    -4.32173   13.96103   -0.26766
       H    -6.23087   17.19696    0.67463
       O    -5.37236   17.23573    1.12342
      H1    -5.02348   18.06296    0.90252
       H    -4.41497   16.40234   -1.63812
       O    -4.86247   16.13287   -2.45413
      H1    -5.57612   15.44944   -2.26648
       H    -4.02684   19.45628   -4.82883
       O    -3.73371   18.81793   -5.48794
      H1    -4.28964   18.00933   -5.43074
       H    -8.35422   15.94566   -0.40630
       O    -7.87950   16.74600   -0.24454
      H1    -8.17471   17.09761    0.60916
       H    -2.69660   14.02508   -5.45621
       O    -2.68276   14.62540   -6.22473
      H1    -1.73419   14.86599   -6.30152
       H    -3.42743   13.14116   -3.89088
       O    -2.49799   13.38896   -3.94775
      H1    -2.08085   12.55103   -4.13633
       H    -8.11448   11.37823   -0.64496
       O    -8.59004   10.78730   -1.27165
      H1    -9.35018   10.53473   -0.71086
       H   -10.79693   12.79279   -2.93467
       O   -10.22107   13.50853   -3.27171
      H1    -9.49319   13.02937   -3.71220

