99
frame 11 | Written by MDAnalysis XYZWriter (release 2.4.3)
       H    17.24714   16.34868    3.17596
       O    17.21331   16.35840    2.22092
      H1    16.53768   15.69298    2.06485
       H    15.38342   12.55331    5.05494
       O    16.14826   12.34396    4.43868
      H1    15.88451   11.54325    4.02779
       H    14.00902   19.63688   11.97806
       O    14.12049   18.97995   12.66636
      H1    13.49474   18.24365   12.45287
       H    14.13884   14.77025    3.52743
       O    13.40659   15.25205    4.01978
      H1    13.98852   15.99509    4.44328
       H    16.07073   13.58924    3.26283
       O    15.60326   14.11782    2.55354
      H1    15.53983   13.58568    1.76443
       H    12.92225   12.27193    9.47989
       O    12.01577   12.13150    9.19588
      H1    11.47486   12.72398    9.74849
       H    13.91433   17.27889    8.65718
       O    13.75671   17.95537    9.34675
      H1    14.56616   18.48709    9.48870
       H    14.57887   12.26534   11.63470
       O    15.36687   11.66475   11.43272
      H1    15.44084   11.56811   10.41288
       H    12.66971   18.80819    3.69582
       O    13.20357   19.04970    2.92492
      H1    13.19810   20.02625    2.98273
       H     9.30292   16.28870   10.96834
       O    10.05114   16.06804   10.31112
      H1    10.84142   16.48992   10.74150
       H     9.81740   17.43915    9.14372
       O     9.85159   18.22934    8.63012
      H1     8.86458   18.45953    8.48419
       H    15.32799   15.90456    9.62145
       O    16.20900   16.32511    9.61312
      H1    16.70900   15.98676   10.38777
       H    17.86341   12.15629    5.44464
       O    18.23217   11.87557    6.28533
      H1    19.19094   12.00170    6.26555
       H    12.99326   15.97865    7.25896
       O    13.96260   15.95201    7.54718
      H1    14.42956   16.46744    6.88164
       H    12.67943   15.84305    2.38060
       O    12.27865   15.54129    1.54230
      H1    12.22631   16.38557    1.05823
       H    16.65588   18.07687    2.16925
       O    16.25205   18.96762    2.14608
      H1    15.33082   18.75788    2.50390
       H    17.05345   14.83441    8.10789
       O    16.68961   14.05677    7.68172
      H1    17.41801   13.43890    7.80106
       H    13.56122   13.60375    5.77226
       O    14.10871   12.85019    6.07247
      H1    14.11062   12.90871    7.07945
       H     9.16486   15.05189    6.65484
       O     9.59506   14.98512    5.80932
      H1     9.04709   15.61610    5.26106
       H    11.35919   19.93354    8.38576
       O    12.30389   19.98348    8.18689
      H1    12.72918   19.15071    8.37155
       H    15.63984   19.66639    5.83950
       O    16.47080   19.18746    5.55549
      H1    17.14506   19.88847    5.80368
       H    15.57338   12.91102    8.38835
       O    15.12909   12.09122    8.61282
      H1    15.42889   11.49354    7.95321
       H    11.64864   18.30466   -0.00052
       O    12.56715   18.10887    0.32324
      H1    12.51963   18.27552    1.26680
       H    11.46070   17.72191    5.44277
       O    11.33394   18.27723    4.60692
      H1    10.53210   17.89322    4.27518
       H    11.66936   11.08255    7.17791
       O    12.12620   10.87088    6.34693
      H1    12.75504   11.55813    6.12581
       H    15.27486   15.70139   12.87956
       O    14.31472   15.70059   13.14174
      H1    13.95392   14.84764   12.76314
       H    11.05160   17.46779    7.29719
       O    11.53319   16.83049    6.78633
      H1    10.85831   16.14923    6.53286
       H    10.72569   14.56783   10.76420
       O    11.18942   13.80999   11.09539
      H1    10.43706   13.27688   11.39725
       H    18.75086   15.76159    5.55337
       O    17.99211   15.42215    5.07974
      H1    17.87859   14.56470    5.52540
       H    17.56944   17.51064    8.93775
       O    18.42662   17.78117    8.62741
      H1    18.35308   18.64589    8.32827
       H    13.36788   16.51907   12.01360
       O    12.57285   16.96319   11.59457
      H1    12.96950   17.29876   10.75461
       H    16.03891   16.16886    5.30852
       O    15.30686   16.79103    5.33781
      H1    15.68719   17.70456    5.36814
       H    12.43102   13.76252    3.44679
       O    11.94393   12.91595    3.53925
      H1    12.41474   12.21310    3.08314

