99
frame 11 | Written by MDAnalysis XYZWriter (release 2.4.3)
       H    -4.64135  -16.50431   -9.99689
       O    -5.46201  -16.50401  -10.56395
      H1    -5.54959  -17.42088  -10.85208
       H    -4.21480  -13.81376  -13.93265
       O    -4.23606  -13.80708  -13.01831
      H1    -3.58950  -14.50222  -12.74808
       H    -8.59519  -12.01001  -10.56473
       O    -8.44383  -11.47007  -11.32329
      H1    -7.51055  -11.18381  -11.15857
       H   -10.77974  -13.95889  -11.04743
       O   -10.72548  -14.48117  -10.23781
      H1   -10.55673  -15.41078  -10.54571
       H    -6.63974   -6.85551   -9.12086
       O    -7.25168   -7.52140   -9.50258
      H1    -7.94565   -7.05335  -10.01087
       H    -9.26447  -13.72667   -9.44286
       O    -8.72802  -13.08443   -9.01476
      H1    -9.18488  -12.84615   -8.18651
       H    -8.83083  -16.75323   -7.96668
       O    -8.02666  -16.72488   -8.49846
      H1    -8.12461  -16.22344   -9.38449
       H    -2.54083  -14.98285   -4.64615
       O    -2.29230  -14.05240   -4.50196
      H1    -3.16679  -13.60402   -4.47860
       H    -4.75587  -11.97453   -4.42835
       O    -4.84833  -12.95343   -4.55382
      H1    -5.63210  -13.14606   -5.13731
       H    -5.61582   -9.56103  -11.60418
       O    -5.92079   -9.94129  -10.74430
      H1    -6.55041   -9.25382  -10.46674
       H    -6.76168  -13.23865  -12.98578
       O    -7.63271  -13.43972  -13.39917
      H1    -8.22845  -13.12791  -12.70354
       H    -9.36746  -10.03830  -11.29358
       O    -9.79868   -9.22071  -11.04358
      H1    -9.34527   -8.43950  -11.44441
       H    -7.51675   -8.73608   -8.31509
       O    -7.51085   -9.40635   -7.57984
      H1    -7.05198   -8.94786   -6.86712
       H   -10.16386  -11.48103   -6.99498
       O    -9.66916  -12.27673   -6.78117
      H1   -10.39141  -12.98147   -6.86793
       H    -8.92735  -16.42728   -4.84754
       O    -8.79652  -15.45234   -4.79990
      H1    -9.39312  -15.10593   -4.15688
       H    -4.09729  -14.83273   -7.17895
       O    -4.63781  -15.66617   -7.06288
      H1    -5.55737  -15.30522   -6.84599
       H    -1.51628  -13.72394   -9.44202
       O    -0.93185  -13.62554  -10.20370
      H1    -0.45863  -12.73849  -10.23142
       H   -10.78851   -9.04041   -8.09664
       O   -10.23874   -9.46560   -7.45435
      H1    -9.35129   -9.48374   -7.75149
       H    -7.21638   -7.48868   -4.71465
       O    -6.58848   -8.17279   -4.97849
      H1    -7.15763   -8.95955   -4.82675
       H    -8.69713  -11.71242   -4.85053
       O    -8.25773  -10.98660   -4.38290
      H1    -7.72298  -11.36203   -3.65896
       H    -2.00871  -13.50181   -7.51475
       O    -2.66754  -13.99103   -7.92687
      H1    -3.19860  -13.34272   -8.42048
       H    -1.14673   -8.94254   -9.18874
       O    -0.85167   -9.72853   -8.69511
      H1    -1.55717   -9.96995   -8.02348
       H    -3.40033  -12.44015  -11.95318
       O    -3.04137  -11.57732  -11.73181
      H1    -2.07472  -11.74843  -11.92754
       H    -9.51481   -9.51145   -4.09867
       O    -9.94842   -8.65547   -4.13693
      H1   -10.81693   -8.76951   -4.56311
       H    -7.93576  -12.24260   -2.15592
       O    -6.95865  -12.19919   -2.34521
      H1    -6.62383  -13.08594   -2.63310
       H    -8.37737  -14.88324  -11.75372
       O    -7.82018  -15.37439  -11.17684
      H1    -7.05555  -15.46872  -11.71153
       H   -11.56431  -14.37414   -8.44355
       O   -11.55504  -14.42812   -7.47159
      H1   -11.09919  -15.30813   -7.19799
       H    -7.39440  -14.60240   -5.68029
       O    -6.71545  -13.99692   -6.08509
      H1    -7.08898  -13.44439   -6.76499
       H    -4.06125   -8.42784   -9.41162
       O    -4.40926   -8.70862   -8.56884
      H1    -4.96072   -9.46319   -8.88333
       H    -6.87600  -11.03566   -7.98805
       O    -6.39218  -11.83200   -8.20286
      H1    -7.08229  -12.40214   -8.51301
       H    -3.68182  -11.77459  -10.07913
       O    -3.93957  -11.91404   -9.12171
      H1    -4.87310  -11.66056   -9.19281
       H    -3.69929   -9.12585   -5.29243
       O    -3.30210   -8.41010   -5.83023
      H1    -3.79927   -8.64407   -6.67870
       H    -4.80838   -9.57433   -3.14916
       O    -4.31444  -10.07068   -3.82818
      H1    -3.44794  -10.27653   -3.46926

