99
frame 11 | Written by MDAnalysis XYZWriter (release 2.4.3)
       H   -16.34604   -7.27335    8.80466
       O   -17.11571   -7.79991    8.98205
      H1   -17.91340   -7.18536    8.83396
       H   -16.65623    0.09704    6.23798
       O   -16.36182   -0.55271    5.59496
      H1   -15.90415   -0.02092    4.89175
       H   -16.19567    2.37483    7.24644
       O   -16.52674    1.48771    7.31447
      H1   -17.48349    1.55739    7.17422
       H   -11.82734   -6.86266   10.21085
       O   -12.74764   -7.16644    9.95383
      H1   -13.17548   -7.02827   10.83051
       H   -15.60154   -3.08308   13.22699
       O   -15.42950   -2.81113   12.30412
      H1   -16.25527   -2.34464   12.02573
       H   -18.22858   -8.07348   10.83586
       O   -18.60422   -8.45756   11.64752
      H1   -19.51508   -8.59646   11.34839
       H   -11.81266   -5.22712    3.09960
       O   -12.19679   -5.19543    4.03268
      H1   -11.43695   -5.60327    4.56004
       H   -17.39165  -10.65344    7.72822
       O   -17.40532  -10.14613    6.86527
      H1   -17.11401   -9.23641    7.22278
       H   -15.31771   -6.35270    9.97649
       O   -15.25020   -5.86247    9.15754
      H1   -14.30781   -5.63505    9.03167
       H   -12.15398   -0.68209    4.23787
       O   -11.22808   -0.95607    4.00596
      H1   -10.75466   -0.81541    4.83605
       H   -16.64713    1.32642    9.21953
       O   -16.61026    1.11198   10.14724
      H1   -16.05280    0.25924   10.05013
       H   -13.19999   -2.15035    6.12190
       O   -13.57045   -1.19342    6.17211
      H1   -14.54066   -1.18271    6.06529
       H   -10.53127   -3.14898    6.28726
       O   -11.49654   -3.26037    6.07708
      H1   -11.54027   -3.72704    5.18494
       H   -12.69416   -3.57551   11.64726
       O   -12.90113   -3.08125   10.81308
      H1   -13.86181   -2.83874   10.74112
       H   -15.85307   -3.89320    2.95235
       O   -16.19080   -4.37061    2.20227
      H1   -15.92633   -5.31189    2.28405
       H   -13.69703   -4.11069    4.63135
       O   -14.42342   -3.46791    4.54066
      H1   -15.15330   -3.76902    5.11676
       H   -19.60841   -2.91174    9.68709
       O   -19.15182   -3.32843    8.95599
      H1   -19.53504   -2.91961    8.17380
       H   -12.26589   -1.30676    9.42918
       O   -12.71753   -0.55308    8.93120
      H1   -12.89725   -0.80148    8.03247
       H   -13.89493   -7.62065    5.68645
       O   -13.12216   -8.05673    6.16505
      H1   -13.19238   -7.72969    7.08619
       H   -14.28705   -0.98739    9.48255
       O   -15.08501   -1.17148    9.95137
      H1   -15.56016   -1.84267    9.46415
       H    -9.92813   -7.07681    5.83791
       O   -10.78097   -6.61152    5.88044
      H1   -11.52454   -7.18942    5.81785
       H   -18.78774   -4.89538    3.99725
       O   -18.80536   -4.14916    3.40664
      H1   -18.12494   -4.38125    2.73952
       H   -17.93295   -1.18240    4.65506
       O   -18.70036   -1.43315    4.10052
      H1   -18.57128   -2.38853    3.97762
       H   -14.97855   -7.25744    1.70379
       O   -15.75465   -7.25315    2.26070
      H1   -16.53045   -7.26424    1.69366
       H   -10.66795   -5.51360    7.41989
       O   -10.06055   -4.98383    7.99625
      H1   -10.76947   -4.36306    8.22666
       H   -15.78400  -10.49706    6.55188
       O   -14.81006  -10.44624    6.33918
      H1   -14.60210   -9.49331    6.29233
       H   -15.34509   -6.18416    5.23726
       O   -15.45248   -7.14764    4.94858
      H1   -15.58259   -7.06829    3.98293
       H   -16.33739   -4.18565    7.14373
       O   -16.29898   -4.72554    6.33247
      H1   -17.14533   -5.15025    6.25633
       H   -17.51963   -6.99419    4.94719
       O   -18.34896   -6.52902    5.09479
      H1   -19.05847   -7.05352    4.89191
       H   -17.47415   -3.42141    8.95088
       O   -16.52202   -3.39875    8.72639
      H1   -16.15975   -4.23466    9.07493
       H   -14.87017   -2.01421    1.09791
       O   -14.22237   -2.63817    1.52202
      H1   -14.68977   -3.37343    1.89363
       H   -12.96559   -3.70996    9.01940
       O   -12.95235   -4.34006    8.26481
      H1   -12.58545   -3.88940    7.49466
       H   -15.95445   -7.31881   12.41527
       O   -15.19723   -7.56497   11.87761
      H1   -14.98381   -8.44965   12.09505

