99
frame 11 | Written by MDAnalysis XYZWriter (release 2.4.3)
       H     8.24746  -17.27671   -5.32121
       O     7.72306  -18.08489   -5.39933
      H1     6.78069  -17.76008   -5.40255
       H    10.21183  -13.22533   -2.66776
       O     9.77339  -12.35818   -2.62244
      H1    10.33150  -11.72243   -3.13507
       H    10.55307  -14.58584    1.24266
       O    11.04822  -15.18063    1.82382
      H1    11.63796  -15.74162    1.32010
       H    12.09503  -14.94430   -6.30308
       O    12.02230  -14.97356   -5.32340
      H1    12.79167  -14.48478   -5.04924
       H    13.17427  -18.31290   -5.87875
       O    12.30325  -18.75312   -5.89620
      H1    11.67546  -18.19267   -6.32425
       H     9.12150  -16.34895   -1.78267
       O     8.67954  -17.03085   -1.18474
      H1     8.64171  -16.56397   -0.35402
       H     8.75510  -13.04681   -4.12700
       O     8.29555  -13.89637   -4.27874
      H1     8.38320  -14.15419   -5.23898
       H    10.35588  -18.09467   -1.54441
       O    11.19563  -18.54151   -1.60674
      H1    11.13008  -19.45542   -1.83659
       H     9.92084  -10.26903   -4.22330
       O    10.74680  -10.76593   -4.35210
      H1    11.04296  -10.39958   -5.20361
       H     5.44646  -17.87226   -1.72956
       O     6.04312  -17.40500   -2.27691
      H1     6.78381  -17.15570   -1.74300
       H     3.67977  -14.71771   -4.42527
       O     3.47809  -14.53080   -5.37811
      H1     2.56565  -14.92438   -5.41261
       H     7.36254  -15.59646    1.84227
       O     8.22202  -16.00425    1.76490
      H1     8.88473  -15.42072    2.15604
       H     5.51419  -16.37603   -6.11003
       O     5.07767  -16.94727   -5.50397
      H1     4.76533  -16.34913   -4.77936
       H    14.98318  -17.07512   -6.46081
       O    14.86293  -17.97307   -6.10042
      H1    15.68241  -18.46584   -6.41955
       H     9.40097   -9.77496   -0.62569
       O     9.30277  -10.76138   -0.43077
      H1     9.39787  -11.22755   -1.30865
       H    12.82973  -13.34781   -0.65943
       O    12.19313  -13.50617   -1.41409
      H1    12.12301  -14.47410   -1.59537
       H     6.06080  -12.99895   -1.20755
       O     5.57743  -12.29299   -0.75309
      H1     6.20458  -12.07965    0.02776
       H     5.90172  -14.77553   -7.72515
       O     6.31052  -15.67998   -7.70729
      H1     6.28483  -16.12475   -8.57470
       H     9.97816  -19.52033   -8.45414
       O    10.70712  -19.01545   -8.83002
      H1    11.55118  -19.44388   -8.59336
       H     7.03842  -14.18063   -2.95848
       O     6.55556  -14.29325   -2.08452
      H1     5.74125  -14.69382   -2.44830
       H    10.58899  -17.14856   -8.21976
       O    10.89907  -16.40695   -7.66025
      H1    10.04684  -15.91755   -7.43680
       H    15.28446  -15.88575   -3.63466
       O    14.95209  -15.08172   -3.19820
      H1    13.98647  -15.21335   -3.05645
       H    10.06110  -16.25815   -4.94115
       O     9.61272  -16.30947   -4.10477
      H1     9.03530  -15.55812   -4.09168
       H    15.04507  -12.46593   -5.16241
       O    14.54286  -13.33513   -5.16273
      H1    14.80867  -13.83469   -4.38255
       H    11.26295  -16.17934   -3.19137
       O    11.89982  -16.01603   -2.49411
      H1    11.91676  -16.92823   -2.10016
       H     4.27010  -16.50475   -2.46429
       O     4.03463  -15.60849   -2.83390
      H1     3.25724  -15.34783   -2.30813
       H    13.32688  -17.25873    0.33467
       O    12.75887  -17.09469    1.09072
      H1    11.90796  -17.64494    1.02507
       H     9.31971  -12.85176    0.35277
       O     9.64075  -13.74557    0.20945
      H1    10.32461  -13.60048   -0.49870
       H     9.88593  -18.66126    0.48253
       O    10.18777  -18.46599    1.36643
      H1     9.43180  -18.18877    1.80826
       H    15.44655  -17.86769   -4.46574
       O    16.04462  -17.78883   -3.69445
      H1    15.45305  -17.88264   -2.88036
       H     7.81861  -15.15534   -7.16513
       O     8.65631  -14.85990   -6.78216
      H1     8.86716  -13.95175   -7.08759
       H    12.60178  -12.00095   -2.51890
       O    12.80080  -11.11224   -2.82384
      H1    12.05162  -10.90993   -3.42830
       H     3.79177  -19.74883   -5.10650
       O     3.92040  -19.24858   -5.91129
      H1     4.40681  -18.49782   -5.61330

