99
frame 11 | Written by MDAnalysis XYZWriter (release 2.4.3)
       H   -17.68495  -13.39645   -9.89478
       O   -17.13428  -14.07455  -10.35466
      H1   -16.46311  -14.43229   -9.79417
       H   -12.07731  -12.91444  -17.82420
       O   -12.33900  -12.85732  -16.90951
      H1   -11.96593  -11.98402  -16.71384
       H   -17.32438   -8.01214  -14.60537
       O   -17.80699   -7.23608  -14.82740
      H1   -17.71926   -6.65857  -14.06632
       H   -10.83307  -10.07514  -12.46013
       O   -11.45177  -10.27282  -13.14297
      H1   -10.99770  -10.29210  -14.02498
       H   -10.77974  -13.95889  -11.04743
       O   -10.72548  -14.48117  -10.23781
      H1   -10.55673  -15.41078  -10.54571
       H   -14.49069   -9.40176  -13.85878
       O   -13.73542   -8.78994  -13.75821
      H1   -13.05935   -9.34653  -13.34127
       H    -9.35103  -13.79794  -16.20540
       O    -9.31344  -13.03125  -15.66191
      H1    -8.72881  -13.29939  -14.91446
       H   -13.04992  -15.35445  -14.60287
       O   -12.10252  -15.11525  -14.80108
      H1   -12.03305  -14.56095  -15.56020
       H   -17.82562  -14.12017  -15.45095
       O   -17.01253  -14.69613  -15.50934
      H1   -16.91734  -15.08796  -14.62627
       H   -15.00628   -9.66269  -17.29186
       O   -15.70798  -10.34703  -17.18969
      H1   -15.25727  -11.07945  -16.73414
       H   -10.02070  -11.43202  -15.97323
       O   -10.72011  -10.72744  -15.96074
      H1   -10.29394  -10.00948  -16.42872
       H   -18.36385  -11.83765  -17.99972
       O   -18.14450  -10.97155  -18.43561
      H1   -17.31798  -10.78955  -18.03636
       H   -14.99446  -12.94648  -12.76292
       O   -15.53079  -12.39551  -13.26409
      H1   -15.14211  -12.42386  -14.17036
       H   -15.49077  -13.42012  -16.17859
       O   -14.92615  -12.67098  -16.02279
      H1   -14.09315  -12.90413  -16.41872
       H   -12.32627   -9.19930  -19.46219
       O   -12.30820   -9.59548  -18.58207
      H1   -11.63899  -10.28842  -18.66384
       H   -18.96009  -13.49527  -19.28760
       O   -18.37777  -13.86925  -18.62076
      H1   -18.92706  -14.53031  -18.22869
       H   -15.04161  -11.09018  -10.64120
       O   -15.80066  -10.65937  -11.12727
      H1   -15.68399  -11.04632  -11.99751
       H   -15.20662  -13.74602  -18.92196
       O   -15.82353  -14.44688  -19.18129
      H1   -16.67053  -14.20563  -18.72269
       H   -15.14927   -5.42232  -16.75574
       O   -15.41197   -6.26233  -17.14450
      H1   -15.02092   -6.92130  -16.57724
       H   -17.25903  -16.53116  -16.32025
       O   -17.08137  -17.43731  -16.57892
      H1   -16.15138  -17.55156  -16.32767
       H   -10.95163  -12.21246  -12.75663
       O   -10.66461  -13.14488  -12.69313
      H1   -10.82373  -13.52022  -13.58079
       H   -18.25015  -17.73936  -11.91199
       O   -17.52840  -17.24089  -12.28701
      H1   -17.81030  -16.32991  -12.20047
       H   -15.61567   -8.02643   -9.29484
       O   -16.25437   -7.98155   -9.99449
      H1   -16.11321   -8.82033  -10.52696
       H   -18.54318  -13.15015  -13.30072
       O   -18.35352  -12.18534  -13.45126
      H1   -17.39383  -12.26772  -13.40822
       H   -12.68744  -17.93868  -11.09230
       O   -13.64371  -17.75580  -11.33495
      H1   -13.66398  -17.13364  -12.10424
       H   -19.38292  -15.22549  -12.24343
       O   -18.56534  -14.67839  -12.41356
      H1   -18.15578  -14.47536  -11.55652
       H   -17.12753  -10.21658  -14.15003
       O   -16.53427   -9.56903  -14.53533
      H1   -16.30635   -9.97348  -15.40375
       H   -11.18701  -16.57465  -14.20647
       O   -10.89906  -17.41425  -13.80351
      H1   -10.01253  -17.48645  -14.12759
       H   -13.25036  -12.36858   -9.88532
       O   -13.47511  -11.40271   -9.78868
      H1   -13.64143  -11.34136   -8.83363
       H   -14.52378  -17.15333  -14.33588
       O   -14.71239  -16.48410  -13.59248
      H1   -15.57063  -16.71943  -13.23184
       H   -12.85793  -14.53086  -11.09512
       O   -13.72589  -14.02817  -11.03671
      H1   -14.22156  -14.58586  -10.44589
       H   -12.93824   -8.97463  -17.02976
       O   -13.53739   -8.37275  -16.49751
      H1   -13.57758   -8.73431  -15.56287
       H   -14.85854   -7.43600  -10.86732
       O   -14.34788   -6.88248  -11.46994
      H1   -14.19300   -7.44646  -12.24303

