99
frame 11 | Written by MDAnalysis XYZWriter (release 2.4.3)
       H    -7.01748   -4.79899    5.08763
       O    -7.21128   -4.38764    4.25483
      H1    -6.48864   -3.83989    3.99257
       H    -8.68926   -1.83968    2.42440
       O    -7.76982   -1.56125    2.47750
      H1    -7.78817   -0.61701    2.23910
       H   -11.82734   -6.86266   10.21085
       O   -12.74764   -7.16644    9.95383
      H1   -13.17548   -7.02827   10.83051
       H   -11.81266   -5.22712    3.09960
       O   -12.19679   -5.19543    4.03268
      H1   -11.43695   -5.60327    4.56004
       H    -8.69770   -3.95491    6.82914
       O    -8.65810   -3.07005    6.43135
      H1    -8.14626   -3.28163    5.64317
       H   -13.38902    0.32828    1.81164
       O   -13.69661    0.08195    2.65117
      H1   -14.01986   -0.81718    2.45382
       H   -15.31771   -6.35270    9.97649
       O   -15.25020   -5.86247    9.15754
      H1   -14.30781   -5.63505    9.03167
       H   -12.15398   -0.68209    4.23787
       O   -11.22808   -0.95607    4.00596
      H1   -10.75466   -0.81541    4.83605
       H   -13.19999   -2.15035    6.12190
       O   -13.57045   -1.19342    6.17211
      H1   -14.54066   -1.18271    6.06529
       H    -8.43312   -3.63653   10.31904
       O    -7.50737   -3.87321   10.48547
      H1    -7.26108   -4.57820    9.81415
       H   -10.53127   -3.14898    6.28726
       O   -11.49654   -3.26037    6.07708
      H1   -11.54027   -3.72704    5.18494
       H   -12.69416   -3.57551   11.64726
       O   -12.90113   -3.08125   10.81308
      H1   -13.86181   -2.83874   10.74112
       H    -5.11885   -1.72087    4.62812
       O    -5.32658   -2.16241    3.79054
      H1    -6.02848   -1.62379    3.41154
       H    -7.21257    0.39832    5.78655
       O    -6.48127    0.75738    5.28267
      H1    -6.17020    1.56748    5.67584
       H    -9.63826   -7.34998    9.87880
       O   -10.08316   -6.86738   10.63232
      H1    -9.46364   -6.17619   10.73568
       H   -13.69703   -4.11069    4.63135
       O   -14.42342   -3.46791    4.54066
      H1   -15.15330   -3.76902    5.11676
       H   -10.83961    1.36032    6.41408
       O   -10.60933    0.47366    6.47407
      H1   -11.18976    0.08830    7.15806
       H   -12.26589   -1.30676    9.42918
       O   -12.71753   -0.55308    8.93120
      H1   -12.89725   -0.80148    8.03247
       H   -13.89493   -7.62065    5.68645
       O   -13.12216   -8.05673    6.16505
      H1   -13.19238   -7.72969    7.08619
       H   -14.28705   -0.98739    9.48255
       O   -15.08501   -1.17148    9.95137
      H1   -15.56016   -1.84267    9.46415
       H    -5.66354   -2.73584    9.25128
       O    -5.05685   -2.11034    8.91635
      H1    -5.36151   -1.25279    9.15976
       H    -9.92813   -7.07681    5.83791
       O   -10.78097   -6.61152    5.88044
      H1   -11.52454   -7.18942    5.81785
       H   -10.35242   -3.34555    1.60268
       O   -10.08899   -2.43159    1.75924
      H1   -10.54390   -2.18817    2.60272
       H   -11.64452   -5.73984    1.28863
       O   -10.87239   -5.21893    1.56840
      H1   -10.11624   -5.75146    1.28177
       H    -5.93913   -5.49984    8.25506
       O    -5.91242   -5.72884    9.18433
      H1    -6.23165   -6.64375    9.25693
       H    -5.99932   -4.90037    1.86672
       O    -6.94294   -5.04903    1.66788
      H1    -7.18440   -4.97110    2.60555
       H   -10.66795   -5.51360    7.41989
       O   -10.06055   -4.98383    7.99625
      H1   -10.76947   -4.36306    8.22666
       H    -9.00392   -0.31730    7.65158
       O    -8.12018   -0.70769    7.80268
      H1    -8.25588   -1.60140    7.36633
       H    -4.90015   -4.77566    6.48548
       O    -5.75770   -5.31551    6.49765
      H1    -5.42236   -6.14690    6.19838
       H   -10.84918   -2.90563   10.73619
       O    -9.96301   -2.54532   10.55216
      H1    -9.96173   -1.66797   10.82254
       H    -6.84869   -0.02686    9.15424
       O    -6.19288    0.34050    9.71254
      H1    -6.49793    0.29415   10.63204
       H    -8.45188   -8.08719    6.82941
       O    -8.59451   -7.92643    5.91687
      H1    -9.10582   -8.69850    5.62010
       H   -12.96559   -3.70996    9.01940
       O   -12.95235   -4.34006    8.26481
      H1   -12.58545   -3.88940    7.49466

