99
frame 11 | Written by MDAnalysis XYZWriter (release 2.4.3)
       H     2.76833   15.58240  -10.71678
       O     1.98386   15.08406  -10.54355
      H1     1.24770   15.71183  -10.55436
       H     4.12495   17.99916  -15.40563
       O     3.59964   17.42793  -14.84831
      H1     3.69256   16.53950  -15.11360
       H     8.73312   14.73280  -10.37300
       O     8.02043   14.21256  -10.81617
      H1     8.46648   13.55582  -11.41559
       H     4.93996   16.34722  -11.21630
       O     4.26904   16.13879  -11.84665
      H1     4.19840   17.05647  -12.21301
       H    14.19755   13.44342   -9.49284
       O    14.59725   14.29215   -9.70622
      H1    13.82291   14.80940   -9.99022
       H    10.27380   13.40193   -6.78471
       O    10.72360   14.22941   -6.93092
      H1    11.02508   14.67341   -6.14154
       H     4.95414   14.78429  -12.98364
       O     5.39261   14.17312  -13.62564
      H1     4.79464   14.30351  -14.43643
       H     4.48174   18.37181  -13.01622
       O     4.89749   18.64106  -12.18380
      H1     5.83103   18.63988  -12.25576
       H    13.14914   17.60984  -13.22219
       O    12.60962   17.38865  -12.41087
      H1    11.75318   17.37264  -12.76583
       H    10.83447   13.72303   -9.01604
       O    10.87289   13.37702   -9.95181
      H1    10.67642   12.42550   -9.90594
       H     7.66167   16.80049  -12.95346
       O     7.68149   16.03105  -13.54632
      H1     7.42244   15.28519  -12.96273
       H    13.07001   18.34417   -8.65760
       O    13.10840   18.87310   -9.50783
      H1    12.58213   18.41294  -10.13774
       H     8.41440   17.39434  -10.83494
       O     7.96176   18.09554  -11.33103
      H1     8.66468   18.75273  -11.41057
       H     5.65284   16.21099   -8.88564
       O     6.02799   16.27434   -9.78733
      H1     6.70909   15.59939  -10.06404
       H     4.89975   13.27841  -11.19149
       O     4.46509   12.43671  -10.93624
      H1     3.73439   12.41566  -11.53277
       H     7.18452   15.54826  -15.17165
       O     7.09296   15.50161  -16.10859
      H1     6.48024   14.82675  -16.30325
       H     4.21289   16.71430   -7.38035
       O     5.07022   16.45664   -7.18412
      H1     5.52951   17.28581   -6.93994
       H    12.31021   18.86803  -16.90686
       O    12.12844   19.34359  -16.11290
      H1    11.36835   18.89826  -15.79307
       H    10.20586   15.45380  -15.93416
       O     9.71958   15.23291  -16.78525
      H1     8.78726   15.19591  -16.60982
       H     5.84763   19.66244   -9.34272
       O     6.86192   19.69882   -9.41278
      H1     7.11338   18.97472  -10.03611
       H    10.27597   16.39852   -9.11491
       O     9.30695   16.18626   -9.23600
      H1     8.88784   16.65556   -8.47083
       H     5.87372   14.94284   -6.44505
       O     6.42592   14.17363   -6.09235
      H1     5.72655   13.46889   -5.98567
       H    11.09006   15.45492  -14.28603
       O    10.34129   16.10221  -14.23799
      H1     9.72741   15.69067  -13.69104
       H    12.14634   12.52350  -12.92224
       O    11.71560   13.38979  -12.99036
      H1    12.09275   13.93561  -12.32453
       H     9.43379   18.92811  -15.47144
       O    10.00487   18.84192  -14.69140
      H1    10.11820   17.90911  -14.66031
       H     8.24955   11.90283   -8.62241
       O     8.04341   11.75136   -9.58096
      H1     7.78313   12.66672   -9.92420
       H     1.82938   17.71988   -8.05427
       O     2.61661   17.47437   -8.51510
      H1     2.99960   18.31423   -8.71695
       H     6.44915   19.33966   -7.55885
       O     6.47449   18.78222   -6.74772
      H1     6.13005   19.32678   -6.02843
       H     9.49670   18.45780   -6.23537
       O     9.12221   18.25823   -7.10077
      H1     8.28502   18.69956   -7.11821
       H     8.07756   13.17152   -6.76491
       O     8.51304   12.31494   -7.09670
      H1     8.54568   11.75618   -6.30349
       H    11.74178   14.90290  -10.46653
       O    12.18198   15.72732  -10.24497
      H1    12.32960   16.34464  -10.95217
       H     9.97485   12.92352  -12.88053
       O     9.02580   12.62955  -12.84467
      H1     9.06206   11.72233  -12.42828
       H    12.07697   16.27976   -7.22095
       O    11.77157   17.16319   -7.51307
      H1    10.84570   17.03830   -7.28658

