99
frame 1 | Written by MDAnalysis XYZWriter (release 2.4.3)
       H     7.97019    5.11754   -8.91606
       O     8.86923    5.04474   -8.54920
      H1     8.84994    4.25578   -7.97106
       H     3.22627    3.05165  -10.64918
       O     3.82344    2.27055  -10.62910
      H1     4.41014    2.38946   -9.85870
       H     1.34380    3.36420   -7.88791
       O     0.85959    4.17062   -7.59791
      H1     0.38030    4.38499   -8.43491
       H    -0.14751    1.34422   -8.40566
       O     0.69980    1.23392   -9.00861
      H1     0.47139    1.86247   -9.71307
       H     0.33452    7.42818   -9.70411
       O     0.26865    6.68502  -10.33634
      H1     0.99456    6.09641  -10.03704
       H    10.43041    1.86583   -7.38649
       O     9.50222    2.26439   -7.23421
      H1     8.89812    1.76520   -7.86923
       H     1.66704    3.37973  -14.54044
       O     2.02643    3.20843  -13.68080
      H1     1.25659    3.08132  -13.11552
       H     4.06162    7.87898  -11.58489
       O     4.97947    7.91115  -11.25863
      H1     5.12857    8.77865  -11.05380
       H     5.32014    2.86376   -7.24046
       O     4.81583    2.54119   -8.04848
      H1     4.24539    1.80256   -7.85000
       H    -0.08448    2.05976  -12.00028
       O     0.11360    2.90726  -11.47532
      H1    -0.76240    3.36479  -11.36814
       H     4.70037   -1.36989   -9.94757
       O     5.23776   -0.70274  -10.36003
      H1     4.91239   -0.54046  -11.23713
       H     5.84701    0.88665  -13.01120
       O     5.49507    0.11290  -13.50899
      H1     6.23653   -0.31291  -13.92158
       H     3.22519    5.06776   -9.80844
       O     2.65044    4.74578  -10.50350
      H1     2.83410    5.28707  -11.29270
       H     5.66281    2.45102  -11.16170
       O     6.21585    2.43881  -11.93640
      H1     7.07338    2.68949  -11.50987
       H     6.49197    6.40733   -9.24070
       O     6.66662    5.64597   -9.87944
      H1     6.90000    6.03138  -10.76815
       H     2.17538   -3.00055  -11.71715
       O     2.58703   -3.23877  -12.58575
      H1     2.13609   -4.06831  -12.79864
       H     0.75494    7.13811  -11.98669
       O     0.87129    7.23666  -12.90426
      H1     1.76155    6.83920  -13.10813
       H     0.08709   -0.31868  -13.31981
       O    -0.44196    0.49456  -13.19338
      H1    -1.34141    0.23365  -12.77504
       H     9.07745    3.86253  -11.89474
       O     8.75320    3.21127  -11.26767
      H1     8.74381    3.73480  -10.40186
       H     2.89005    0.84390  -11.36267
       O     2.57641    0.04448  -11.81472
      H1     2.42873    0.24904  -12.73792
       H     5.65997    4.50164   -5.54011
       O     6.22852    3.79655   -5.95125
      H1     6.88187    3.48091   -5.29013
       H     3.63452    0.58401  -14.13321
       O     2.82458    0.90062  -14.57314
      H1     2.56530    1.68263  -14.05762
       H     6.89849    0.69670   -9.78518
       O     7.17038    1.45856   -9.28291
      H1     6.44405    1.73179   -8.68043
       H     5.27996    6.61413   -7.83777
       O     5.83845    7.41755   -7.80780
      H1     5.20834    8.20134   -7.73953
       H     2.21994    0.36297   -6.72920
       O     2.73457    0.46560   -7.55236
      H1     2.11851    0.80059   -8.23561
       H     3.68347    7.76020   -9.68939
       O     2.92580    7.60581   -9.11659
      H1     3.30882    7.38486   -8.26104
       H     0.64420   -1.43675   -9.97263
       O     1.52045   -1.82673  -10.24358
      H1     1.73726   -1.07686  -10.91617
       H     5.74281    6.01364  -14.82723
       O     5.61811    5.06799  -14.61571
      H1     6.01730    5.01822  -13.73783
       H     7.76535    6.36898  -12.78123
       O     6.86899    6.11278  -12.50432
      H1     6.42498    6.95544  -12.20648
       H     6.62012   -1.66408  -11.14249
       O     6.92920   -2.13222  -11.87974
      H1     6.20599   -2.41149  -12.43956
       H     4.16357    4.22494   -7.83159
       O     3.79167    5.11283   -7.75333
      H1     2.85297    4.99756   -7.52907
       H     2.67797    4.91611  -13.25199
       O     3.17961    5.71600  -13.18592
      H1     4.05697    5.53101  -13.55048
       H     3.69792   -1.76501   -7.54648
       O     3.31807   -2.36636   -8.21897
      H1     2.58875   -1.90178   -8.63476

