99
frame 11 | Written by MDAnalysis XYZWriter (release 2.4.3)
       H   -17.68495  -13.39645   -9.89478
       O   -17.13428  -14.07455  -10.35466
      H1   -16.46311  -14.43229   -9.79417
       H   -12.07731  -12.91444  -17.82420
       O   -12.33900  -12.85732  -16.90951
      H1   -11.96593  -11.98402  -16.71384
       H    -8.27920  -18.88887  -14.64696
       O    -8.32792  -17.89941  -14.50034
      H1    -7.50608  -17.62481  -14.04543
       H   -10.78216  -17.43084  -11.91167
       O   -10.81170  -17.21024  -10.94036
      H1    -9.97645  -17.61194  -10.58886
       H   -13.54656  -17.37048  -18.82171
       O   -14.37295  -17.80993  -18.76849
      H1   -15.06244  -17.10604  -18.67446
       H   -10.77974  -13.95889  -11.04743
       O   -10.72548  -14.48117  -10.23781
      H1   -10.55673  -15.41078  -10.54571
       H    -9.35103  -13.79794  -16.20540
       O    -9.31344  -13.03125  -15.66191
      H1    -8.72881  -13.29939  -14.91446
       H   -13.04992  -15.35445  -14.60287
       O   -12.10252  -15.11525  -14.80108
      H1   -12.03305  -14.56095  -15.56020
       H   -17.82562  -14.12017  -15.45095
       O   -17.01253  -14.69613  -15.50934
      H1   -16.91734  -15.08796  -14.62627
       H   -15.00628   -9.66269  -17.29186
       O   -15.70798  -10.34703  -17.18969
      H1   -15.25727  -11.07945  -16.73414
       H   -18.36385  -11.83765  -17.99972
       O   -18.14450  -10.97155  -18.43561
      H1   -17.31798  -10.78955  -18.03636
       H   -14.99446  -12.94648  -12.76292
       O   -15.53079  -12.39551  -13.26409
      H1   -15.14211  -12.42386  -14.17036
       H   -15.49077  -13.42012  -16.17859
       O   -14.92615  -12.67098  -16.02279
      H1   -14.09315  -12.90413  -16.41872
       H    -7.23834  -19.98257  -18.33265
       O    -7.41871  -19.24007  -17.79178
      H1    -7.29843  -18.59344  -18.49501
       H   -14.36040  -18.42587  -16.97861
       O   -14.60909  -18.35979  -16.03839
      H1   -14.39569  -19.22544  -15.72921
       H   -17.43037  -17.31109  -18.49174
       O   -17.56718  -16.91507  -19.32751
      H1   -17.09480  -16.08397  -19.20513
       H   -18.96009  -13.49527  -19.28760
       O   -18.37777  -13.86925  -18.62076
      H1   -18.92706  -14.53031  -18.22869
       H   -15.20662  -13.74602  -18.92196
       O   -15.82353  -14.44688  -19.18129
      H1   -16.67053  -14.20563  -18.72269
       H   -15.12934  -18.56183  -10.52211
       O   -16.07354  -18.71201  -10.29163
      H1   -16.57083  -18.32640  -11.04353
       H   -17.25903  -16.53116  -16.32025
       O   -17.08137  -17.43731  -16.57892
      H1   -16.15138  -17.55156  -16.32767
       H   -10.95163  -12.21246  -12.75663
       O   -10.66461  -13.14488  -12.69313
      H1   -10.82373  -13.52022  -13.58079
       H   -18.25015  -17.73936  -11.91199
       O   -17.52840  -17.24089  -12.28701
      H1   -17.81030  -16.32991  -12.20047
       H   -18.74295  -19.96147  -16.04748
       O   -18.19094  -19.52678  -15.38378
      H1   -17.90001  -18.67452  -15.75646
       H   -18.54318  -13.15015  -13.30072
       O   -18.35352  -12.18534  -13.45126
      H1   -17.39383  -12.26772  -13.40822
       H   -10.28186  -17.77929  -18.57027
       O   -10.55788  -16.85174  -18.59661
      H1    -9.85024  -16.34093  -18.10991
       H   -12.68744  -17.93868  -11.09230
       O   -13.64371  -17.75580  -11.33495
      H1   -13.66398  -17.13364  -12.10424
       H   -19.38292  -15.22549  -12.24343
       O   -18.56534  -14.67839  -12.41356
      H1   -18.15578  -14.47536  -11.55652
       H    -7.90763  -15.56599  -16.94646
       O    -8.90688  -15.57334  -16.82917
      H1    -8.94271  -16.29037  -16.12708
       H   -11.18701  -16.57465  -14.20647
       O   -10.89906  -17.41425  -13.80351
      H1   -10.01253  -17.48645  -14.12759
       H   -14.52378  -17.15333  -14.33588
       O   -14.71239  -16.48410  -13.59248
      H1   -15.57063  -16.71943  -13.23184
       H   -15.56398  -15.76469   -8.20351
       O   -15.17417  -15.70211   -9.07628
      H1   -15.33544  -16.54478   -9.50603
       H   -12.85793  -14.53086  -11.09512
       O   -13.72589  -14.02817  -11.03671
      H1   -14.22156  -14.58586  -10.44589
       H   -10.48842  -19.44655  -17.36794
       O   -10.11875  -19.46953  -18.24738
      H1    -9.18218  -19.58082  -18.01745

