99
frame 1 | Written by MDAnalysis XYZWriter (release 2.4.3)
       H     2.23672   18.56810   -7.73317
       O     2.44397   17.96145   -8.44707
      H1     3.29873   17.60399   -8.18049
       H     5.42979   17.67278  -13.33554
       O     4.62944   18.24172  -13.32362
      H1     4.15545   18.24027  -12.52465
       H    11.38745   16.58328  -16.34464
       O    12.05692   15.93826  -16.56072
      H1    11.69546   15.08602  -16.72504
       H    10.24729   15.93239  -13.54489
       O     9.80461   16.27064  -14.29346
      H1     9.43462   15.56209  -14.84031
       H     7.43783   16.21145  -13.14440
       O     6.55042   16.18160  -12.72582
      H1     6.60273   16.11990  -11.75532
       H     4.35575   16.66243  -14.97560
       O     3.89225   16.54308  -15.85384
      H1     3.29726   17.32574  -15.99264
       H    13.89711   18.43124   -5.62936
       O    13.96712   18.09999   -6.50309
      H1    13.14818   17.61947   -6.68684
       H    13.63171   12.08925  -10.75454
       O    13.98917   12.96733  -10.94345
      H1    13.43891   13.64882  -10.55750
       H    12.20529   14.31175   -8.97239
       O    12.57221   14.92593   -9.65036
      H1    11.97058   14.97112  -10.38478
       H    10.94088   12.67310   -9.83900
       O    10.15317   13.34583   -9.91352
      H1    10.05912   13.56847  -10.84332
       H    10.33025   19.15908  -15.76348
       O    10.81874   18.60330  -15.18532
      H1    10.25749   17.86629  -14.86728
       H    11.09370   16.76950   -6.11005
       O    11.49880   16.22779   -6.80464
      H1    11.86531   15.56196   -6.22243
       H    10.50322   16.24676   -8.47541
       O     9.62446   16.02557   -8.76726
      H1     9.70904   15.37507   -9.49943
       H    15.67571   17.29435  -11.40827
       O    15.38730   18.25005  -11.40166
      H1    15.21258   18.35956  -10.46765
       H     5.85884   16.72186   -8.91320
       O     6.52506   16.88374   -9.61166
      H1     7.31867   16.36249   -9.46659
       H     7.51302   14.89493  -16.08184
       O     8.36884   15.10003  -16.48042
      H1     8.38571   16.03419  -16.83665
       H     1.92240   19.43670  -11.20841
       O     2.72948   19.27130  -10.74031
      H1     2.48843   18.69544   -9.97270
       H     5.05558   17.29989   -6.85690
       O     4.80319   16.52038   -7.46796
      H1     4.45726   15.86197   -6.86221
       H    14.51443   18.50227  -13.46623
       O    14.60198   19.16924  -14.12512
      H1    15.34162   19.69708  -13.79688
       H    15.49736   19.43372   -8.30011
       O    16.40798   19.48368   -8.10194
      H1    16.71394   18.57868   -7.78912
       H     6.17910   18.41804  -10.28401
       O     5.89948   19.22796  -10.76790
      H1     4.93614   19.44467  -10.80669
       H     8.67424   19.11220   -8.19035
       O     8.99273   18.54669   -7.45760
      H1     9.11450   17.69609   -7.96081
       H     8.24946   12.85057   -9.64861
       O     7.41607   12.38191   -9.93261
      H1     6.91107   13.00070  -10.48079
       H    13.51795   15.51760  -14.11677
       O    12.96431   16.22112  -13.85515
      H1    12.42035   16.47491  -14.60054
       H    10.35692   12.15741  -13.38496
       O     9.58177   12.27341  -12.78113
      H1     9.35609   11.41970  -12.34223
       H    14.29239   15.23744   -9.14297
       O    15.20102   15.04193   -8.96455
      H1    15.66284   15.86245   -8.85592
       H     5.11084   19.14223   -5.61133
       O     5.24164   18.34121   -5.07248
      H1     4.34067   18.02189   -4.81931
       H     6.01505   14.05798  -12.10583
       O     5.57803   13.81149  -11.28009
      H1     4.82701   14.40719  -11.15312
       H     7.01022   17.02329   -5.13515
       O     7.97511   16.84760   -5.15422
      H1     8.35318   17.46540   -5.79866
       H     9.57335   18.51712  -10.79908
       O     8.71875   18.19274  -11.16707
      H1     8.47398   18.78613  -11.89846
       H    10.61329   17.42853   -3.56005
       O    10.42780   16.66732   -4.07213
      H1     9.44518   16.72076   -4.29259
       H    10.77925   16.65324  -11.44362
       O    11.00268   15.81737  -11.90462
      H1    11.76372   16.03635  -12.46926
       H    14.94158   18.39389  -16.28610
       O    14.85989   17.45767  -16.46268
      H1    14.31675   17.02555  -15.74715

