9
frame 1 | Written by MDAnalysis XYZWriter (release 2.4.3)
       H    -9.36672  -16.46945  -19.05655
       O    -9.73985  -16.22728  -19.91102
      H1    -9.83087  -15.25761  -19.89188
       H    -8.21670  -17.49235  -17.93367
       O    -8.47588  -16.73609  -17.36646
      H1    -8.07879  -16.92106  -16.50707
       H    -7.82336  -19.23834  -19.56841
       O    -7.80558  -19.13275  -18.60844
      H1    -8.60142  -19.58650  -18.23718

