9
frame 0 | Written by MDAnalysis XYZWriter (release 2.4.3)
       H     1.46227  -14.78492  -15.85020
       O     1.46329  -15.33338  -16.66430
      H1     2.07906  -14.86561  -17.22819
       H    -1.28145  -17.74302  -17.24100
       O    -2.22032  -17.97326  -17.48246
      H1    -2.86889  -17.91150  -16.71981
       H     0.48611  -18.00996  -18.17933
       O     0.37778  -17.76489  -17.24962
      H1     0.58777  -16.78923  -17.30046

