9
frame 1 | Written by MDAnalysis XYZWriter (release 2.4.3)
       H     0.39232  -13.42391    5.61078
       O     0.17383  -12.49927    5.87821
      H1     0.98315  -12.18759    6.26447
       H    -0.01686  -14.98943    4.33123
       O     0.52696  -15.22258    5.10536
      H1     1.35200  -14.95328    4.75193
       H    -0.47254  -11.34108    4.62095
       O    -0.28376  -10.63131    3.99045
      H1    -0.48307   -9.81399    4.49477

