9
frame 1 | Written by MDAnalysis XYZWriter (release 2.4.3)
       H   -17.51964    6.40051   14.31238
       O   -17.37616    7.31386   14.61733
      H1   -16.87142    7.76940   13.92909
       H   -17.73582    7.80310   16.56316
       O   -18.19249    8.04389   17.36808
      H1   -18.27643    9.01345   17.33397
       H   -15.61845    6.58055   15.54910
       O   -14.78679    6.05568   15.47147
      H1   -15.03078    5.17872   15.73034

