9
frame 1 | Written by MDAnalysis XYZWriter (release 2.4.3)
       H    11.96851    1.36457   13.77667
       O    12.39589    0.55567   14.11142
      H1    12.97401    0.15876   13.44201
       H    12.14730   -0.03518   10.70765
       O    12.25698    0.84174   10.34485
      H1    11.50792    1.02705    9.75371
       H    11.96336    2.06690   11.66825
       O    11.65031    2.65758   12.35876
      H1    12.16382    3.47693   12.28875

