9
frame 0 | Written by MDAnalysis XYZWriter (release 2.4.3)
       H    -0.22968   14.88238   -2.20299
       O    -0.97317   15.23617   -1.67310
      H1    -1.30709   16.00662   -2.12911
       H    -0.91326   13.71364    1.21498
       O    -1.53698   13.66638    0.48305
      H1    -1.16852   14.34554   -0.14135
       H    -3.98276   11.98895    1.42534
       O    -3.91537   11.78972    0.48717
      H1    -3.21578   12.44767    0.32785

