9
frame 1 | Written by MDAnalysis XYZWriter (release 2.4.3)
       H     4.38569  -11.77895    8.43747
       O     3.94608  -12.59237    8.21134
      H1     4.63026  -13.21394    7.78470
       H     6.67176  -15.10680    8.72571
       O     7.24240  -14.87518    9.50960
      H1     7.62435  -15.71172    9.69287
       H     6.05397  -14.28872    6.73766
       O     5.52456  -14.85931    7.27718
      H1     5.90505  -15.75484    7.13406

