9
frame 1 | Written by MDAnalysis XYZWriter (release 2.4.3)
       H    16.37748   -6.74718  -10.17630
       O    15.52928   -7.18552   -9.96149
      H1    15.80223   -8.11941   -9.86934
       H    18.24791   -6.36488   -8.95428
       O    18.33310   -6.72887   -9.83529
      H1    18.74783   -6.13198  -10.47869
       H    14.14687   -6.79010  -10.75019
       O    13.30395   -6.50153  -11.11878
      H1    12.83700   -6.17672  -10.35317

