9
frame 1 | Written by MDAnalysis XYZWriter (release 2.4.3)
       H     4.70550   16.55420   11.59110
       O     4.89191   15.58615   11.62157
      H1     5.24903   15.32725   10.74385
       H     5.49728   13.25837   11.10516
       O     5.43261   12.38015   11.42815
      H1     4.48894   12.21774   11.28387
       H     6.71569   15.26137    8.96461
       O     5.91510   14.86287    9.32488
      H1     5.45551   14.71883    8.55248

