9
frame 1 | Written by MDAnalysis XYZWriter (release 2.4.3)
       H    -6.57973   17.78917    1.78703
       O    -5.73903   17.96421    2.35060
      H1    -5.35792   18.71773    1.82949
       H    -7.78104   17.77227   -0.03936
       O    -7.97857   17.85827    0.90387
      H1    -8.48106   18.69914    0.97959
       H   -10.01020   15.40100    0.24857
       O    -9.92562   15.95055    1.00703
      H1    -9.18349   16.51206    0.78085

