9
frame 1 | Written by MDAnalysis XYZWriter (release 2.4.3)
       H   -17.65368   13.89654   11.41143
       O   -17.70837   12.96701   11.11201
      H1   -18.51420   12.88009   10.59376
       H   -18.39871   15.21984   13.10898
       O   -19.00067   15.38859   12.37564
      H1   -19.49494   16.17452   12.61556
       H   -16.68902   12.86943    9.64179
       O   -15.94974   12.62685    9.09846
      H1   -16.15341   12.77264    8.14531

