9
frame 1 | Written by MDAnalysis XYZWriter (release 2.4.3)
       H    -6.21032   19.68700   12.10434
       O    -6.58077   19.56714   11.20270
      H1    -5.75684   19.74172   10.69432
       H    -4.33623   18.30270    9.28929
       O    -4.19019   19.25926    9.37512
      H1    -3.74039   19.49648    8.53835
       H    -3.27270   20.21501    6.27723
       O    -3.39200   19.28453    6.48791
      H1    -2.54536   18.85299    6.25234

