9
frame 1 | Written by MDAnalysis XYZWriter (release 2.4.3)
       H   -16.76018    5.00221    6.97924
       O   -16.08612    4.41063    7.35201
      H1   -15.84444    4.76226    8.22992
       H   -17.12600    3.03587    7.27095
       O   -17.74748    2.29579    7.14286
      H1   -18.54852    2.60667    7.60176
       H   -17.31228    7.36439    6.97093
       O   -17.73016    6.48256    6.79660
      H1   -18.48474    6.59811    6.21203

