9
frame 1 | Written by MDAnalysis XYZWriter (release 2.4.3)
       H   -14.23098    6.29587   -1.97940
       O   -14.25615    6.67992   -2.88509
      H1   -14.07357    7.61156   -2.63862
       H   -11.50724    4.35031   -0.57574
       O   -11.32845    5.09737   -1.14756
      H1   -12.06893    5.35127   -1.62927
       H   -14.65761    4.47334   -0.09814
       O   -14.81831    5.28875   -0.59495
      H1   -15.69578    5.15072   -0.96146

