9
frame 1 | Written by MDAnalysis XYZWriter (release 2.4.3)
       H    16.84881  -11.93850   -0.12938
       O    17.45202  -11.22753    0.00011
      H1    18.28279  -11.60873    0.28903
       H    16.64510   -9.72724    0.46601
       O    16.54176   -8.74795    0.59837
      H1    16.01105   -8.65152    1.42942
       H    18.27327   -8.49235    1.53191
       O    19.10687   -8.23926    2.01551
      H1    19.67471   -7.99186    1.31414

