9
frame 0 | Written by MDAnalysis XYZWriter (release 2.4.3)
       H    -1.61240  -10.97287   -0.76307
       O    -1.57299  -11.59261   -1.46302
      H1    -1.59996  -12.44265   -1.11120
       H    -4.92004  -13.96211   -0.59426
       O    -4.61885  -13.51549   -1.37134
      H1    -3.69594  -13.67564   -1.33787
       H    -1.75752  -14.33300   -2.37364
       O    -1.47185  -14.28540   -1.45107
      H1    -0.51468  -14.47388   -1.53228

