9
frame 2 | Written by MDAnalysis XYZWriter (release 2.4.3)
       H   -14.27326    1.77834    1.52800
       O   -14.94460    2.00215    0.87150
      H1   -15.11555    1.08722    0.57493
       H   -12.67717    4.16256   -1.10652
       O   -12.82177    5.05418   -0.72487
      H1   -13.65450    5.07788   -0.19728
       H   -15.17527    3.84240    0.84330
       O   -15.21463    4.81504    0.90835
      H1   -15.77214    5.07789    0.16584

