9
frame 2 | Written by MDAnalysis XYZWriter (release 2.4.3)
       H    10.20866    4.19126    7.10466
       O    10.40452    4.27942    8.05378
      H1     9.71927    3.90101    8.65500
       H    11.47247    2.49744    7.64689
       O    12.13961    1.86489    7.95315
      H1    11.85005    1.52169    8.83096
       H    10.02546    2.71790    4.75459
       O    10.10031    3.66556    5.04782
      H1     9.32618    4.12522    4.77275

