9
frame 2 | Written by MDAnalysis XYZWriter (release 2.4.3)
       H   -15.85635  -17.26913   16.73917
       O   -15.44909  -17.50605   15.88062
      H1   -16.04091  -18.12513   15.43914
       H   -13.66304  -18.04648   16.10774
       O   -13.00875  -18.75822   16.35460
      H1   -12.14784  -18.27437   16.42585
       H   -17.31260  -15.17451   15.03742
       O   -16.42206  -14.93200   15.18724
      H1   -15.95212  -15.72490   15.34114

