9
frame 2 | Written by MDAnalysis XYZWriter (release 2.4.3)
       H    10.77760    9.64834   13.89184
       O    11.18855    9.89233   13.06108
      H1    10.88065    9.25135   12.39777
       H     9.91146    7.78883   15.03133
       O     9.60143    8.67014   15.03008
      H1     8.70691    8.58149   14.63825
       H     9.73753   12.82933   12.98087
       O     9.80583   12.26252   12.12929
      H1    10.42601   11.55731   12.36628

