9
frame 2 | Written by MDAnalysis XYZWriter (release 2.4.3)
       H   -15.45374   15.09249  -13.03842
       O   -16.13189   15.38249  -12.36177
      H1   -16.38411   14.53617  -11.91198
       H   -18.11062   16.53332  -12.22237
       O   -18.75562   16.98765  -12.77376
      H1   -18.35357   16.88680  -13.65243
       H   -17.79442   13.78609  -11.52825
       O   -17.15479   13.13684  -11.29360
      H1   -17.03244   13.30302  -10.24649

