9
frame 2 | Written by MDAnalysis XYZWriter (release 2.4.3)
       H    11.90467   -1.36678   -0.01711
       O    12.45698   -1.25463   -0.83469
      H1    12.63308   -2.19940   -1.15586
       H     9.46938   -1.24218    2.83269
       O     8.89743   -0.98831    3.50317
      H1     8.08094   -0.73257    3.01639
       H    11.53587   -0.47857    1.73939
       O    10.89986   -1.18388    1.55880
      H1    11.18671   -1.93294    2.12683

