9
frame 2 | Written by MDAnalysis XYZWriter (release 2.4.3)
       H    -3.76492   -1.77808  -17.01127
       O    -2.98172   -2.28658  -16.88977
      H1    -2.87159   -2.48009  -15.88231
       H    -4.99135   -1.08654  -18.97295
       O    -4.83023   -0.49921  -18.26637
      H1    -4.53655    0.30382  -18.66593
       H    -5.97126    0.26379  -16.73655
       O    -6.65475    0.20729  -16.07570
      H1    -6.76062    1.09189  -15.70184

