9
frame 2 | Written by MDAnalysis XYZWriter (release 2.4.3)
       H    -2.38518   -2.74049  -13.42994
       O    -2.03400   -3.07258  -14.31069
      H1    -1.58888   -3.96430  -14.15889
       H    -3.50144   -5.37660  -11.55344
       O    -2.90391   -5.77342  -12.21196
      H1    -3.24610   -5.44598  -13.08967
       H    -4.36376   -5.46324  -15.58013
       O    -4.32995   -5.76449  -14.61292
      H1    -5.27774   -5.91523  -14.44680

