9
frame 0 | Written by MDAnalysis XYZWriter (release 2.4.3)
       H    -6.72061  -17.34824  -11.15217
       O    -6.01362  -17.47616  -11.85194
      H1    -6.32221  -17.04566  -12.71024
       H    -4.64827  -14.66096  -12.35658
       O    -5.04551  -13.91138  -11.89514
      H1    -4.77432  -13.28495  -12.57837
       H    -2.91691  -15.84471  -12.83700
       O    -3.85014  -16.04378  -12.98839
      H1    -4.14528  -16.61592  -12.22577

