9
frame 2 | Written by MDAnalysis XYZWriter (release 2.4.3)
       H    14.43503    9.39781  -15.94579
       O    15.11538   10.04816  -15.89831
      H1    15.22233   10.58492  -16.72148
       H    14.30805   11.20868  -14.76645
       O    13.78651   12.03655  -14.48718
      H1    13.86050   12.11969  -13.49585
       H    16.63182   10.51461  -12.97771
       O    16.56632    9.65094  -13.41325
      H1    16.18669    9.70086  -14.29790

