9
frame 2 | Written by MDAnalysis XYZWriter (release 2.4.3)
       H    -5.46717   12.04539    3.65030
       O    -4.99035   12.00178    2.80873
      H1    -5.59288   12.37417    2.14036
       H    -2.70168   11.51493    7.20157
       O    -3.08804   12.22895    6.62343
      H1    -3.99576   11.91393    6.48617
       H    -6.11275   12.32108    5.99367
       O    -5.69085   11.66073    5.41679
      H1    -6.46947   11.01881    5.30170

