9
frame 2 | Written by MDAnalysis XYZWriter (release 2.4.3)
       H   -17.95056    7.15472   14.22670
       O   -17.53925    8.03880   14.31490
      H1   -16.76939    8.05024   13.71696
       H   -15.80973    7.61079   11.92269
       O   -15.46840    8.03719   12.73643
      H1   -14.90238    7.34210   13.14686
       H   -15.99948    6.30047   15.21795
       O   -15.54806    5.62691   15.70726
      H1   -15.95050    4.79948   15.44019

