9
frame 2 | Written by MDAnalysis XYZWriter (release 2.4.3)
       H    19.44736   -1.16144   11.97117
       O    19.69256   -1.85467   12.64114
      H1    19.27809   -1.56926   13.48596
       H    18.44568   -0.75821   15.21574
       O    18.34973   -1.66300   15.05307
      H1    17.47000   -1.75463   14.58910
       H    19.55877    1.43585   15.35414
       O    18.68066    1.10519   15.11674
      H1    18.04267    1.78426   15.43523

