9
frame 2 | Written by MDAnalysis XYZWriter (release 2.4.3)
       H     0.24701  -15.79198   19.29967
       O     0.10913  -15.40374   18.45257
      H1     0.83710  -15.75818   17.92087
       H     1.97358  -17.17843   16.19318
       O     1.94847  -16.23551   16.08161
      H1     2.32722  -16.02449   15.21944
       H     2.79912  -18.43737   17.52124
       O     2.09505  -18.82157   16.95822
      H1     2.44889  -19.63622   16.54761

