9
frame 2 | Written by MDAnalysis XYZWriter (release 2.4.3)
       H     7.29986   -5.35795   -6.38966
       O     7.59774   -4.57754   -6.87397
      H1     6.89336   -3.90324   -6.55747
       H    10.56352   -4.93115   -8.60453
       O    10.04517   -4.33305   -7.96205
      H1     9.22788   -4.80750   -7.78850
       H     5.34732   -2.90352   -5.39950
       O     6.10139   -2.61271   -5.91798
      H1     6.74695   -2.18180   -5.33906

