9
frame 2 | Written by MDAnalysis XYZWriter (release 2.4.3)
       H    -4.23168    6.77227  -11.26434
       O    -4.79357    6.06117  -11.64589
      H1    -4.89501    6.15697  -12.59410
       H     0.53447    7.45857   -9.90019
       O     0.09284    6.59661  -10.06192
      H1     0.82900    5.99978  -10.30765
       H    -2.36853    7.39003  -10.34336
       O    -3.03446    8.13460  -10.35111
      H1    -2.53209    8.85104  -10.72104

