9
frame 2 | Written by MDAnalysis XYZWriter (release 2.4.3)
       H   -16.39837   -9.33613    3.55111
       O   -15.86943   -9.78160    2.89922
      H1   -16.00743   -9.17876    2.18382
       H   -16.40607  -12.26352    2.23998
       O   -15.65613  -12.50901    1.59629
      H1   -14.85321  -12.15237    2.02546
       H   -14.25719  -10.30715    2.99940
       O   -13.51576  -10.90585    2.78563
      H1   -12.66105  -10.49998    2.95143

