9
frame 2 | Written by MDAnalysis XYZWriter (release 2.4.3)
       H    10.77961   -8.66524   15.85002
       O    10.42957   -8.23071   15.09991
      H1     9.60436   -7.77375   15.40469
       H    12.40675  -10.17433   16.16715
       O    11.93343   -9.89759   16.94709
      H1    11.83724  -10.69641   17.49269
       H    12.99703   -9.25682   18.35214
       O    13.59431   -8.92337   19.03073
      H1    13.51548   -7.96686   18.93916

