9
frame 2 | Written by MDAnalysis XYZWriter (release 2.4.3)
       H   -13.00936   -0.12013   19.07951
       O   -13.85619    0.28534   19.08320
      H1   -14.54584   -0.37417   19.27812
       H   -10.16299   -1.12834   19.57571
       O   -10.86886   -0.42597   19.51386
      H1   -11.36156   -0.77889   18.77285
       H    -7.93967   -1.64186   17.57943
       O    -8.12581   -0.92275   16.95687
      H1    -7.24179   -0.74327   16.61585

