9
frame 2 | Written by MDAnalysis XYZWriter (release 2.4.3)
       H    10.21076   16.33985   10.15972
       O    11.00924   16.17836    9.58475
      H1    11.75590   16.28068   10.21333
       H    11.02718   17.93505    9.20120
       O    11.18550   18.86944    8.80016
      H1    10.30645   19.31551    8.85781
       H    11.52052   17.98015    7.20431
       O    11.64172   17.98073    6.20598
      H1    11.12134   17.20855    5.89629

