9
frame 2 | Written by MDAnalysis XYZWriter (release 2.4.3)
       H   -15.85635  -17.26913   16.73917
       O   -15.44909  -17.50605   15.88062
      H1   -16.04091  -18.12513   15.43914
       H   -12.70041  -17.93462   19.34423
       O   -12.81043  -18.88919   19.04405
      H1   -12.73627  -18.83982   18.01516
       H   -13.66304  -18.04648   16.10774
       O   -13.00875  -18.75822   16.35460
      H1   -12.14784  -18.27437   16.42585

