9
frame 2 | Written by MDAnalysis XYZWriter (release 2.4.3)
       H     6.59709  -18.20144   18.10897
       O     7.43198  -18.51853   17.70136
      H1     7.72094  -17.69707   17.28123
       H    11.83757  -16.26136   19.12066
       O    11.53132  -17.06419   18.55655
      H1    12.24664  -17.71361   18.71431
       H     9.98879  -17.77107   19.30607
       O     9.24890  -18.15431   19.76418
      H1     8.60689  -18.35414   19.00738

