9
frame 2 | Written by MDAnalysis XYZWriter (release 2.4.3)
       H     6.82484   14.50191   -2.65738
       O     6.30748   13.79094   -2.97318
      H1     6.94398   13.38169   -3.56885
       H     7.08584   13.66042   -6.37832
       O     7.69384   13.31681   -5.65111
      H1     7.54926   12.35808   -5.58664
       H     3.74605   16.11908   -3.09381
       O     4.52350   15.93337   -3.69178
      H1     4.77223   15.04624   -3.49505

