9
frame 3 | Written by MDAnalysis XYZWriter (release 2.4.3)
       H    12.59442    1.71213    5.37508
       O    13.19892    2.41995    5.60968
      H1    13.14510    3.03560    4.86051
       H    13.43840    1.05859    8.09551
       O    13.42554    0.28735    7.48652
      H1    14.17487    0.34042    6.81105
       H    16.28867    1.36474    6.60712
       O    15.66827    1.12162    5.85733
      H1    14.94890    1.72868    5.77972

