9
frame 2 | Written by MDAnalysis XYZWriter (release 2.4.3)
       H   -11.36226   10.97731   16.16383
       O   -11.07276   11.70969   15.55997
      H1   -11.85363   11.99705   15.14493
       H    -9.91980    9.92533   13.06919
       O   -10.14222    9.60578   13.96288
      H1   -10.43441   10.43345   14.31528
       H   -12.84318    8.29394   14.26194
       O   -12.19383    7.97494   13.62420
      H1   -11.50087    8.68988   13.61263

