9
frame 2 | Written by MDAnalysis XYZWriter (release 2.4.3)
       H    10.80545    5.34343   13.77897
       O    10.51504    6.25446   13.90397
      H1     9.70961    6.09466   14.43966
       H     8.86239    4.32112   14.45741
       O     8.58177    4.89113   15.23464
      H1     7.70376    5.22214   14.90649
       H    10.24594    3.14834   12.57060
       O     9.42627    3.56132   12.86451
      H1     8.88826    2.81216   12.81322

