9
frame 3 | Written by MDAnalysis XYZWriter (release 2.4.3)
       H    -0.94042    5.98592  -17.72213
       O    -1.32714    6.42195  -16.93711
      H1    -1.85792    7.18525  -17.16999
       H     0.36178    3.19055  -18.01604
       O     0.74341    3.27499  -18.96450
      H1     1.63124    3.62488  -18.84634
       H    -1.87522    5.03426  -19.44627
       O    -0.93314    5.21855  -19.44126
      H1    -0.41572    4.35778  -19.39275

