9
frame 3 | Written by MDAnalysis XYZWriter (release 2.4.3)
       H    13.33418  -18.03390   -6.16741
       O    12.55200  -18.49197   -6.51499
      H1    11.67845  -18.08714   -6.18075
       H     9.45822  -19.15636   -6.33057
       O     9.60603  -18.44594   -6.96231
      H1     9.97488  -18.80147   -7.77386
       H    10.30223  -17.11121   -5.70929
       O    10.88070  -16.72385   -5.03814
      H1    11.28206  -15.96242   -5.50670

