9
frame 3 | Written by MDAnalysis XYZWriter (release 2.4.3)
       H    -4.58515    4.05707   16.73915
       O    -3.63934    3.82736   16.70390
      H1    -3.22637    4.36577   16.00947
       H    -3.65363    5.61421   19.27956
       O    -3.83709    4.69115   19.40766
      H1    -3.83292    4.39525   18.46829
       H    -6.28818    3.44272   18.03389
       O    -6.18037    4.22202   17.43999
      H1    -6.50865    3.89379   16.59810

