9
frame 3 | Written by MDAnalysis XYZWriter (release 2.4.3)
       H     0.91139  -19.19525  -15.72749
       O     1.84183  -18.99304  -15.55734
      H1     2.30903  -19.43581  -16.24499
       H    -2.50216  -18.68844  -18.21725
       O    -2.33941  -19.07771  -19.13338
      H1    -2.37310  -18.44793  -19.83265
       H    -0.15465  -19.43548  -17.46873
       O    -0.32390  -18.54091  -17.15031
      H1     0.57070  -18.12755  -17.20064

