9
frame 3 | Written by MDAnalysis XYZWriter (release 2.4.3)
       H     1.41568   -7.66125    2.26594
       O     1.42744   -7.70425    1.33491
      H1     2.10311   -7.13410    0.96990
       H     1.46063   -5.77452    3.57245
       O     1.83543   -6.63927    3.86154
      H1     1.43733   -6.69469    4.72947
       H     1.56666   -9.71481    3.94878
       O     2.49675   -9.51500    3.62664
      H1     3.10631  -10.00161    4.17323

