9
frame 3 | Written by MDAnalysis XYZWriter (release 2.4.3)
       H   -17.24162   -5.77510   -2.87538
       O   -18.14338   -5.70495   -2.44678
      H1   -18.73357   -5.32468   -3.13037
       H   -16.81575   -4.92136   -6.32932
       O   -17.53788   -5.21773   -5.74818
      H1   -18.02887   -4.37906   -5.48257
       H   -17.75007   -4.23237   -0.68465
       O   -18.23963   -4.38078    0.11704
      H1   -18.38204   -3.51517    0.47966

