9
frame 3 | Written by MDAnalysis XYZWriter (release 2.4.3)
       H     4.07125   18.60048    7.01229
       O     3.62085   18.17598    7.78033
      H1     2.66289   18.39970    7.58570
       H    -0.92951   18.74259    9.93214
       O    -0.70263   18.06424    9.31958
      H1    -1.41445   17.45700    9.12871
       H     0.38555   18.64077    8.15399
       O     1.00726   19.08489    7.52782
      H1     0.57828   18.84595    6.69292

