9
frame 3 | Written by MDAnalysis XYZWriter (release 2.4.3)
       H    18.54053  -17.42285   -8.18444
       O    18.42264  -17.11843   -7.25701
      H1    18.21792  -17.94798   -6.78192
       H    17.57653  -19.38943   -4.96698
       O    18.55142  -19.38046   -5.06686
      H1    18.93665  -18.67495   -4.44055
       H    17.18856  -18.02225   -2.12167
       O    17.77917  -18.35745   -1.41531
      H1    17.57144  -19.27669   -1.12259

