9
frame 3 | Written by MDAnalysis XYZWriter (release 2.4.3)
       H    18.76617   17.06023  -17.83700
       O    19.47892   16.82528  -18.50820
      H1    19.18904   17.11041  -19.36287
       H    17.48540   17.08155  -15.43511
       O    17.48123   17.62400  -16.26887
      H1    16.51741   17.58825  -16.59599
       H    14.88035   18.65163  -16.39152
       O    14.78534   18.26092  -17.28432
      H1    13.91184   17.75839  -17.28569

