9
frame 3 | Written by MDAnalysis XYZWriter (release 2.4.3)
       H    10.09815  -14.65301  -12.93902
       O     9.60382  -15.11292  -13.69715
      H1    10.16740  -14.98555  -14.43588
       H    11.73440  -13.97874  -11.49227
       O    11.29474  -13.45791  -12.16871
      H1    11.89746  -13.52173  -12.92318
       H     9.26548  -13.46800  -11.07145
       O     8.63128  -12.78501  -10.80665
      H1     8.69189  -12.85834   -9.84711

