9
frame 3 | Written by MDAnalysis XYZWriter (release 2.4.3)
       H     5.46598   -2.20731    1.72334
       O     5.80645   -2.79968    0.99185
      H1     6.63101   -2.39096    0.72391
       H     7.18850   -4.74735    3.18581
       O     7.67538   -4.46564    2.43342
      H1     7.20394   -3.77385    1.98742
       H     2.44392   -2.64526   -0.07471
       O     2.86408   -3.29087    0.55592
      H1     3.62868   -2.81364    0.85330

