9
frame 3 | Written by MDAnalysis XYZWriter (release 2.4.3)
       H    10.15296  -10.86862  -10.30263
       O    10.64132  -10.40737  -11.03807
      H1    11.05493  -11.11702  -11.56484
       H    11.73440  -13.97874  -11.49227
       O    11.29474  -13.45791  -12.16871
      H1    11.89746  -13.52173  -12.92318
       H     8.20911   -9.79038  -12.46713
       O     8.13802  -10.66183  -12.89322
      H1     8.53595  -11.26170  -12.27902

