9
frame 3 | Written by MDAnalysis XYZWriter (release 2.4.3)
       H   -14.38362   -0.62067   14.68882
       O   -13.43635   -0.88598   14.65376
      H1   -13.29569   -1.74727   14.27100
       H   -16.68806   -0.52680   13.95221
       O   -16.21107   -0.20643   14.76121
      H1   -16.34214   -0.93333   15.43387
       H   -18.19016    1.28088   16.93480
       O   -18.57292    0.62205   16.27807
      H1   -17.81943    0.14232   15.84374

