9
frame 3 | Written by MDAnalysis XYZWriter (release 2.4.3)
       H    13.66142    2.63928  -17.51418
       O    14.60465    2.82520  -17.55142
      H1    14.79754    2.79482  -18.49184
       H    12.26919   -0.06274  -18.76742
       O    12.45366    0.29259  -17.92427
      H1    13.25521   -0.06738  -17.51538
       H    11.87502    1.81808  -17.01509
       O    11.92375    2.58335  -16.46453
      H1    11.14402    2.79922  -15.90420

