9
frame 3 | Written by MDAnalysis XYZWriter (release 2.4.3)
       H     4.26126   13.36307   17.23200
       O     3.56179   13.09473   17.83976
      H1     3.75161   13.59008   18.66801
       H     4.25894   11.27863   17.86294
       O     4.61840   10.36072   17.85917
      H1     5.42461   10.45239   18.42080
       H     3.37283    9.45874   15.20055
       O     2.97700    9.13158   16.05657
      H1     3.54806    9.62784   16.66714

