9
frame 3 | Written by MDAnalysis XYZWriter (release 2.4.3)
       H   -12.40037   -2.96030    4.38753
       O   -12.60584   -2.20292    4.92105
      H1   -13.49533   -2.11790    5.04387
       H   -12.28193   -0.76535    8.15005
       O   -12.83730   -0.02819    7.81382
      H1   -12.15464    0.61425    7.59837
       H   -15.66387   -1.23474    5.71832
       O   -14.87232   -1.57837    6.19158
      H1   -14.34312   -0.86350    6.52753

