9
frame 3 | Written by MDAnalysis XYZWriter (release 2.4.3)
       H     6.37222   -8.15130  -12.73444
       O     5.93580   -8.96539  -12.50018
      H1     6.67421   -9.53798  -12.18139
       H    10.11765   -8.61434  -11.67751
       O     9.20013   -8.30217  -11.81857
      H1     9.33792   -7.31013  -11.91382
       H     8.20911   -9.79038  -12.46713
       O     8.13802  -10.66183  -12.89322
      H1     8.53595  -11.26170  -12.27902

