9
frame 3 | Written by MDAnalysis XYZWriter (release 2.4.3)
       H     9.25431   -7.75514   -5.05579
       O    10.06053   -8.15093   -5.44032
      H1     9.82812   -8.27966   -6.34272
       H     6.21390   -7.73574   -4.11130
       O     5.39531   -8.11206   -3.87219
      H1     5.25122   -7.63435   -3.03739
       H     7.58352   -5.77979   -4.95871
       O     7.82968   -6.61082   -4.54317
      H1     8.00292   -6.40957   -3.64378

