9
frame 3 | Written by MDAnalysis XYZWriter (release 2.4.3)
       H   -16.68633  -10.22625   -6.47082
       O   -16.63665   -9.63950   -5.73698
      H1   -17.49899   -9.16040   -5.81454
       H   -13.90941   -9.05413   -2.35766
       O   -13.99482  -10.06696   -2.13689
      H1   -14.26948  -10.55395   -2.92051
       H   -16.22580  -10.77238   -4.42887
       O   -15.73955  -11.48241   -4.07064
      H1   -16.13184  -11.93078   -3.29508

