9
frame 4 | Written by MDAnalysis XYZWriter (release 2.4.3)
       H   -19.31857   -8.90833    6.01534
       O   -19.79031   -8.38642    6.68015
      H1   -19.65307   -7.42209    6.58753
       H   -16.06853   -5.81172    5.43722
       O   -16.97671   -5.96569    5.07957
      H1   -16.99136   -6.04763    4.14100
       H   -18.73493   -5.98576    5.59912
       O   -19.59478   -5.81628    5.96141
      H1   -20.20798   -6.02236    5.24828

