9
frame 3 | Written by MDAnalysis XYZWriter (release 2.4.3)
       H   -12.93679   -1.30216   16.52840
       O   -12.74466   -1.52858   17.46332
      H1   -12.02641   -2.23352   17.44743
       H   -16.39657   -2.88402   16.69127
       O   -16.84884   -2.75220   15.86902
      H1   -17.81948   -2.62460   16.11552
       H   -14.44822   -4.41000   17.03144
       O   -14.54783   -3.65747   17.63546
      H1   -13.88783   -2.98549   17.40047

