9
frame 4 | Written by MDAnalysis XYZWriter (release 2.4.3)
       H   -10.17734   -6.31388    5.42495
       O   -10.11417   -7.06266    6.02684
      H1    -9.88715   -7.87505    5.47551
       H   -11.63315   -6.26301    8.45820
       O   -12.08965   -6.79549    7.74663
      H1   -11.44710   -6.81905    7.04406
       H    -7.68548   -7.58801    8.75696
       O    -7.85580   -7.09388    7.98722
      H1    -8.04235   -7.71672    7.28299

