9
frame 3 | Written by MDAnalysis XYZWriter (release 2.4.3)
       H    11.98768   10.53509  -15.76994
       O    11.49501   11.38871  -15.85802
      H1    12.20035   11.98255  -15.47533
       H     9.07684   10.29720  -19.22604
       O     9.94453   10.26388  -18.71819
      H1    10.28933   11.16519  -18.58561
       H    10.74090   13.13917  -18.38445
       O    11.51699   12.58808  -18.31849
      H1    11.67729   12.34143  -17.36168

