9
frame 4 | Written by MDAnalysis XYZWriter (release 2.4.3)
       H     8.62889   16.46635    2.97651
       O     7.88563   16.65669    3.52017
      H1     7.21044   16.00208    3.54804
       H     5.60720   13.86237    3.93668
       O     6.26367   14.39514    4.33855
      H1     6.31899   14.10450    5.23668
       H     5.88510   12.63604    7.04722
       O     6.10368   13.54302    6.92589
      H1     5.26018   13.93578    7.23832

