9
frame 4 | Written by MDAnalysis XYZWriter (release 2.4.3)
       H    -5.14764   12.60283   15.02320
       O    -5.22347   12.93749   15.92034
      H1    -5.60484   13.84225   16.00492
       H    -6.76516   15.20434   14.84655
       O    -6.28410   15.37155   15.69095
      H1    -5.37125   15.57433   15.45535
       H    -3.85234   17.48479   15.11239
       O    -3.58045   16.59467   15.30120
      H1    -3.19629   16.56658   16.17334

