9
frame 4 | Written by MDAnalysis XYZWriter (release 2.4.3)
       H    -2.28727  -12.82684   15.45066
       O    -2.66929  -13.64199   15.08235
      H1    -3.20076  -13.46386   14.29080
       H    -5.51319  -13.10608   16.64244
       O    -4.98715  -12.59725   16.04932
      H1    -4.29424  -13.26821   15.79594
       H    -1.09583  -14.20252   13.99877
       O    -0.39504  -14.72277   13.56305
      H1    -0.62240  -14.74518   12.64419

