9
frame 0 | Written by MDAnalysis XYZWriter (release 2.4.3)
       H    14.55240   -6.61656    4.45469
       O    13.76318   -6.06655    4.55963
      H1    13.38272   -6.37016    5.41839
       H    12.40096   -4.59615    6.75555
       O    13.24751   -4.24519    7.02335
      H1    13.50938   -3.69295    6.32687
       H    11.16018   -6.08358    7.13921
       O    11.73333   -6.53819    6.48656
      H1    11.31068   -6.32223    5.63272

