9
frame 4 | Written by MDAnalysis XYZWriter (release 2.4.3)
       H   -12.62228   13.80836  -14.02040
       O   -13.49110   13.49062  -14.19341
      H1   -13.38199   13.37956  -15.13656
       H   -13.41585   12.84829  -17.83643
       O   -13.89053   12.84088  -17.00057
      H1   -14.60768   13.46746  -17.13649
       H   -16.42927   13.89018  -18.21670
       O   -16.22259   14.10464  -17.28240
      H1   -16.93064   13.64644  -16.88706

