9
frame 4 | Written by MDAnalysis XYZWriter (release 2.4.3)
       H    -9.03714   -5.98146   -4.93445
       O    -9.00903   -5.83378   -4.01217
      H1    -9.81930   -5.28529   -3.82362
       H    -7.08501   -6.27941   -4.20537
       O    -6.32809   -6.85595   -4.34962
      H1    -6.74336   -7.72501   -4.63310
       H    -9.26662   -9.03992   -3.47804
       O    -9.19303   -8.32704   -2.86979
      H1    -9.35043   -7.50270   -3.30865

