9
frame 4 | Written by MDAnalysis XYZWriter (release 2.4.3)
       H    14.62811   15.85669    2.70322
       O    14.71654   15.27657    1.93356
      H1    15.36741   14.55631    2.12803
       H    13.27487   16.63764    5.71027
       O    14.18366   16.76029    5.76686
      H1    14.29341   17.71963    5.63836
       H    15.37170   15.25209    5.08184
       O    15.83275   14.41124    5.13627
      H1    16.77676   14.67848    4.97919

