9
frame 0 | Written by MDAnalysis XYZWriter (release 2.4.3)
       H    -7.03769   12.83097   -4.60565
       O    -7.91353   13.21563   -4.73193
      H1    -8.24074   12.99467   -5.57706
       H    -7.25180   14.78530   -5.43371
       O    -6.94507   15.57247   -5.92680
      H1    -5.97761   15.61740   -5.74480
       H   -10.44699   14.50706   -3.48702
       O    -9.75046   13.90740   -3.08916
      H1    -9.26906   13.59936   -3.86658

