9
frame 4 | Written by MDAnalysis XYZWriter (release 2.4.3)
       H     2.62079  -20.14344   13.16122
       O     2.24535  -19.26637   13.20655
      H1     2.75916  -18.75217   13.89292
       H     3.83438  -19.64953   15.90010
       O     3.97905  -18.75028   15.65988
      H1     4.56076  -18.42981   16.39286
       H     0.90942  -19.57183   14.38981
       O     0.43767  -19.49697   15.20704
      H1    -0.04465  -18.69931   15.19814

