9
frame 4 | Written by MDAnalysis XYZWriter (release 2.4.3)
       H     5.78754   13.59082  -18.77690
       O     6.34627   12.99343  -19.26371
      H1     7.22105   13.00307  -18.84239
       H     9.12393   13.90986  -18.87218
       O     9.01882   13.25119  -18.17728
      H1     8.70712   13.65360  -17.38119
       H    10.82933   12.49109  -18.09707
       O    11.72838   12.04878  -18.14278
      H1    12.03153   11.97741  -17.23440

