9
frame 4 | Written by MDAnalysis XYZWriter (release 2.4.3)
       H    -7.73005   -8.36631  -16.92803
       O    -7.82941   -8.99844  -17.67381
      H1    -7.05981   -8.82734  -18.31824
       H   -10.40082   -4.46750  -19.80825
       O   -10.99791   -4.97970  -19.29319
      H1   -10.40304   -5.73482  -19.28982
       H   -10.32887   -8.30335  -19.13784
       O    -9.65215   -7.66335  -19.14259
      H1    -8.91206   -8.12926  -18.73851

