9
frame 4 | Written by MDAnalysis XYZWriter (release 2.4.3)
       H    12.50290    0.61935   -6.80336
       O    12.98614   -0.15917   -7.25425
      H1    12.53282   -0.42839   -8.09642
       H    11.63518    2.53937   -5.73346
       O    11.34173    2.18841   -6.63405
      H1    11.80941    2.70688   -7.32020
       H    15.87854    0.20736   -8.34030
       O    15.56810    0.80270   -7.60329
      H1    14.63555    0.47247   -7.53296

