9
frame 0 | Written by MDAnalysis XYZWriter (release 2.4.3)
       H   -17.26570   10.61553  -18.51071
       O   -17.92717   10.76035  -17.82654
      H1   -17.53839   10.18314  -17.11820
       H   -18.69048    8.65504  -15.68455
       O   -17.78831    8.68994  -15.94637
      H1   -17.33806    8.66742  -15.02454
       H   -19.36910   13.06035  -16.82122
       O   -19.78073   12.84540  -17.66303
      H1   -19.16160   12.13622  -17.92781

