9
frame 4 | Written by MDAnalysis XYZWriter (release 2.4.3)
       H    12.25802   -9.88264  -17.09212
       O    12.95824   -9.95208  -17.74618
      H1    12.62601   -9.39596  -18.49992
       H    16.06346  -12.41630  -19.12746
       O    16.35745  -13.32850  -19.24081
      H1    16.17665  -13.77348  -18.39228
       H    14.34869  -10.63441  -18.72416
       O    15.13509  -10.84935  -19.27348
      H1    15.54532   -9.99917  -19.41683

