9
frame 4 | Written by MDAnalysis XYZWriter (release 2.4.3)
       H    20.21691  -18.10822   -2.78943
       O    19.63501  -17.73837   -3.43601
      H1    18.87432  -17.87327   -2.89736
       H    18.26543  -18.72396   -6.24031
       O    18.67958  -19.35060   -5.56706
      H1    19.15287  -18.74153   -4.96380
       H    16.81971  -17.49380   -1.63608
       O    17.56640  -18.14507   -1.69393
      H1    17.21414  -18.93094   -2.13176

