9
frame 4 | Written by MDAnalysis XYZWriter (release 2.4.3)
       H   -14.60304  -10.22145  -13.27541
       O   -14.97023  -10.73357  -14.01214
      H1   -15.94248  -10.62942  -13.88987
       H   -15.06736  -10.15664  -17.00784
       O   -14.45282   -9.58940  -16.56468
      H1   -14.50678  -10.03844  -15.68462
       H   -12.90082   -9.45117  -17.51511
       O   -11.98686   -9.60359  -17.87658
      H1   -12.13824  -10.42124  -18.31445

