9
frame 4 | Written by MDAnalysis XYZWriter (release 2.4.3)
       H    19.40075    5.04112  -10.23581
       O    19.87452    5.81268   -9.94620
      H1    19.23761    6.49185  -10.29393
       H    17.77596    9.00660  -10.49050
       O    18.40933    8.31421  -10.58326
      H1    18.32137    7.89011  -11.48772
       H    17.33406    7.11807   -9.31913
       O    16.80392    7.04401   -8.55035
      H1    16.91213    6.13553   -8.26772

