9
frame 4 | Written by MDAnalysis XYZWriter (release 2.4.3)
       H   -17.26612    5.00189   19.26986
       O   -16.29013    4.87849   19.54174
      H1   -15.88552    5.75907   19.55672
       H   -18.41172    2.95507   18.22341
       O   -17.76019    2.26229   18.20181
      H1   -16.87012    2.77053   18.26042
       H   -19.63124    5.30317   18.13848
       O   -18.91446    4.68226   17.99278
      H1   -18.52345    4.88293   17.10618

