9
frame 0 | Written by MDAnalysis XYZWriter (release 2.4.3)
       H   -19.55713   -9.67328  -13.94724
       O   -19.40528   -9.55623  -14.89483
      H1   -19.63289   -8.60749  -15.06548
       H   -17.37699  -10.80817  -14.30575
       O   -17.71014  -11.72947  -14.07901
      H1   -17.43304  -11.92009  -13.15127
       H   -18.00026   -9.13913  -15.50643
       O   -17.08306   -8.77425  -15.67920
      H1   -17.27596   -7.95385  -16.22365

