9
frame 5 | Written by MDAnalysis XYZWriter (release 2.4.3)
       H    15.83891  -18.99570  -18.46351
       O    15.16886  -19.18137  -19.18344
      H1    15.36970  -18.51841  -19.86464
       H    12.30264  -18.09963  -16.69792
       O    12.53253  -18.33457  -15.77454
      H1    11.81344  -17.81985  -15.28335
       H    12.83879  -17.22171  -19.23710
       O    12.63850  -18.00162  -18.65867
      H1    13.34090  -18.69188  -18.92756

