9
frame 0 | Written by MDAnalysis XYZWriter (release 2.4.3)
       H    13.29402   19.06971   -6.71097
       O    13.77119   18.66585   -5.98863
      H1    13.05800   18.17798   -5.53270
       H    14.94584   19.19237   -3.09321
       O    14.13297   19.65646   -3.32682
      H1    13.82409   19.37838   -4.20151
       H    16.45255   19.75947   -7.04702
       O    16.29638   19.84498   -6.05566
      H1    15.65804   19.19554   -5.96504

