9
frame 5 | Written by MDAnalysis XYZWriter (release 2.4.3)
       H    18.60440   -9.56777   -7.55016
       O    18.18919  -10.20227   -6.92230
      H1    18.04941   -9.67510   -6.15390
       H    19.17879  -11.98732   -7.36288
       O    19.72661  -12.44303   -8.06386
      H1    19.99220  -13.21329   -7.56718
       H    16.32786  -10.68415   -8.17888
       O    15.61909  -11.06803   -8.78342
      H1    15.90498  -10.68067   -9.66311

