9
frame 5 | Written by MDAnalysis XYZWriter (release 2.4.3)
       H    -3.84458  -20.03980  -13.71656
       O    -4.10968  -19.09844  -13.84366
      H1    -4.65775  -18.98697  -13.06952
       H    -5.61444  -18.50764  -10.97821
       O    -6.02546  -18.79691  -11.91161
      H1    -6.66407  -19.48755  -11.62499
       H    -4.24321  -17.79812   -9.88511
       O    -5.02305  -18.13372   -9.46357
      H1    -5.37334  -17.49900   -8.82721

