9
frame 5 | Written by MDAnalysis XYZWriter (release 2.4.3)
       H     9.27263  -14.21706    6.67868
       O     9.06176  -14.61372    5.83784
      H1     8.48262  -13.97693    5.36656
       H     8.90684  -16.86320    0.17532
       O     9.41736  -16.42757    0.85136
      H1     9.05027  -16.73141    1.66525
       H     9.25053  -17.04479    4.31229
       O     9.30851  -16.55408    3.51179
      H1     9.38941  -15.67367    3.87232

