9
frame 5 | Written by MDAnalysis XYZWriter (release 2.4.3)
       H    -4.70531   -7.61271   -1.15268
       O    -4.97627   -8.50357   -0.82977
      H1    -4.42834   -8.47779   -0.05084
       H    -8.33624   -8.37073   -1.07264
       O    -7.90321   -7.94885   -0.24460
      H1    -7.00679   -8.25199   -0.39555
       H    -3.90895   -9.69539   -1.58740
       O    -3.46110  -10.43695   -2.10590
      H1    -2.71566  -10.70383   -1.54639

