9
frame 5 | Written by MDAnalysis XYZWriter (release 2.4.3)
       H    16.74749  -18.36373  -12.44636
       O    17.56752  -18.24779  -12.89334
      H1    17.68586  -17.37152  -13.31658
       H    19.01773  -15.83198  -14.47234
       O    18.19647  -15.78012  -13.99077
      H1    18.08379  -14.88604  -13.65436
       H    18.84370  -18.49244  -11.68174
       O    19.42383  -18.50904  -10.85413
      H1    18.75203  -18.70539  -10.15376

