9
frame 0 | Written by MDAnalysis XYZWriter (release 2.4.3)
       H     0.46400   15.55822   -7.34523
       O     0.68674   15.85360   -8.26588
      H1     1.11891   16.73584   -8.13472
       H    -3.59741   14.45539   -7.95954
       O    -3.58176   14.63919   -8.90170
      H1    -2.76869   15.17849   -9.03685
       H    -0.69602   16.12282   -9.20029
       O    -1.46057   16.12335   -9.85414
      H1    -1.89547   16.98777   -9.96819

