9
frame 5 | Written by MDAnalysis XYZWriter (release 2.4.3)
       H   -14.88997  -10.60271  -14.22806
       O   -14.77255  -11.10337  -15.05354
      H1   -15.69224  -11.30067  -15.40484
       H   -15.80102  -10.31799  -17.52261
       O   -15.11529   -9.69042  -17.26830
      H1   -14.86958   -9.88867  -16.34129
       H   -17.45480  -11.64919  -16.93996
       O   -17.19661  -11.50971  -15.97840
      H1   -17.56843  -10.62541  -15.78608

