9
frame 5 | Written by MDAnalysis XYZWriter (release 2.4.3)
       H    -0.58606   16.87479   -3.77055
       O    -1.03609   16.52197   -2.96776
      H1    -1.50982   17.25904   -2.53706
       H     1.78607   15.83209   -1.64028
       O     0.87192   15.62864   -1.38409
      H1     0.29900   15.79718   -2.11717
       H    -2.05337   18.02797   -0.32758
       O    -2.66282   18.65993   -0.74165
      H1    -3.39551   18.89263   -0.11187

