9
frame 5 | Written by MDAnalysis XYZWriter (release 2.4.3)
       H     9.45920   -8.85043    7.07079
       O     8.88076   -8.37658    6.51712
      H1     9.23702   -8.12737    5.63797
       H     6.40310   -5.97726    7.04817
       O     7.03677   -6.21405    7.76863
      H1     7.69573   -6.88546    7.37607
       H     5.90185   -8.96797    6.87713
       O     6.49544   -9.64437    6.52478
      H1     7.29547   -9.09021    6.57842

