9
frame 5 | Written by MDAnalysis XYZWriter (release 2.4.3)
       H    18.42080    2.59048   14.03686
       O    18.83946    2.84288   13.16752
      H1    19.75025    3.11363   13.43039
       H    19.66549   -0.33075   14.96790
       O    19.20407   -1.13494   14.70572
      H1    18.27492   -0.91625   14.57486
       H    18.12888    1.87253   16.55193
       O    17.65686    2.22749   15.82851
      H1    17.18303    2.98458   16.16297

