9
frame 5 | Written by MDAnalysis XYZWriter (release 2.4.3)
       H     3.54283  -17.14531  -10.95996
       O     3.16495  -18.07321  -10.86149
      H1     2.99107  -18.34447  -11.77840
       H     5.76100  -19.33148   -9.39894
       O     6.19084  -18.71274   -8.66847
      H1     5.36912  -18.35293   -8.28578
       H     3.42231  -17.98822   -9.14154
       O     3.46144  -18.27302   -8.21148
      H1     3.11694  -17.52343   -7.72964

