9
frame 5 | Written by MDAnalysis XYZWriter (release 2.4.3)
       H    12.77754  -16.20587   -7.81684
       O    12.25819  -16.94662   -7.50505
      H1    11.52492  -16.57160   -6.99959
       H    14.40341  -13.60775   -5.55501
       O    14.87418  -13.77842   -6.39302
      H1    15.38995  -12.99117   -6.54794
       H    14.06878  -14.22591   -7.78748
       O    13.35873  -14.47656   -8.54034
      H1    13.68271  -14.23158   -9.40200

