9
frame 5 | Written by MDAnalysis XYZWriter (release 2.4.3)
       H    11.71365   -3.58528    6.61820
       O    12.37866   -3.73765    7.29734
      H1    13.11917   -3.73596    6.75634
       H    13.60809   -5.40507    7.81064
       O    14.46367   -5.73736    8.05391
      H1    14.67059   -6.34283    7.33627
       H    11.44072   -5.40907    7.52447
       O    10.64316   -5.98505    7.36580
      H1    10.48679   -6.40975    8.20248

