9
frame 5 | Written by MDAnalysis XYZWriter (release 2.4.3)
       H    12.34157    5.67531   -7.02482
       O    12.04862    4.79823   -6.74369
      H1    12.03195    4.88217   -5.79705
       H     9.00522    5.50287   -6.38563
       O     9.38491    4.92083   -7.04982
      H1    10.31067    4.77868   -6.83023
       H    14.33183    3.75601   -7.63397
       O    15.01661    3.54440   -7.08380
      H1    15.13556    2.59733   -7.24572

