9
frame 0 | Written by MDAnalysis XYZWriter (release 2.4.3)
       H    12.77502   -8.53348  -12.36763
       O    12.39865   -8.96832  -13.15315
      H1    13.24732   -9.34747  -13.50183
       H    11.42095   -7.67175  -13.88980
       O    11.09100   -6.85169  -14.32770
      H1    10.29603   -6.56936  -13.84121
       H    14.47422   -7.43519  -10.88812
       O    13.57105   -7.34827  -11.30328
      H1    12.91982   -7.01504  -10.58191

