9
frame 5 | Written by MDAnalysis XYZWriter (release 2.4.3)
       H   -12.91876   19.50742    2.66851
       O   -13.63055   19.47539    3.32405
      H1   -14.06556   18.65355    3.15070
       H   -11.87086   19.21010    6.57147
       O   -12.28788   19.86629    5.97803
      H1   -12.61086   19.44430    5.17336
       H   -11.39307   17.44231    7.48863
       O   -10.86481   18.22593    7.62788
      H1   -10.73566   18.28891    8.62577

