9
frame 5 | Written by MDAnalysis XYZWriter (release 2.4.3)
       H    -1.87595    4.54799    9.15712
       O    -2.66650    4.02092    9.00649
      H1    -3.41484    4.60947    8.80822
       H     0.22042    5.94403    9.40628
       O    -0.39284    5.56367   10.05869
      H1    -0.51005    6.33884   10.71244
       H     0.37589    4.45406   11.11205
       O     0.73500    3.87249   11.85306
      H1     0.85659    3.00389   11.40343

