9
frame 5 | Written by MDAnalysis XYZWriter (release 2.4.3)
       H    -8.02651    1.25195   14.27009
       O    -7.41368    2.06679   14.17656
      H1    -7.98498    2.77290   13.79326
       H    -8.92444    5.91719   12.55116
       O    -9.34429    6.49323   11.92204
      H1    -9.94146    5.80737   11.55545
       H    -7.46001    6.08066   14.15922
       O    -7.78772    5.27373   13.76262
      H1    -7.15006    5.10395   13.04474

