9
frame 5 | Written by MDAnalysis XYZWriter (release 2.4.3)
       H   -11.51811  -15.24524  -11.96036
       O   -11.11911  -14.52627  -11.42721
      H1   -10.49865  -14.94754  -10.81827
       H    -9.55501  -13.50301  -12.70531
       O    -8.68354  -13.03446  -12.53602
      H1    -7.97920  -13.67671  -12.20176
       H   -11.38631  -11.32357  -12.56137
       O   -11.82535  -11.77814  -11.77522
      H1   -11.44312  -12.66158  -11.44568

