9
frame 5 | Written by MDAnalysis XYZWriter (release 2.4.3)
       H    17.98858   15.28356   -5.46090
       O    17.25633   15.87719   -5.59938
      H1    16.41159   15.44196   -5.83498
       H    14.44272   13.94728   -5.29399
       O    14.88549   14.65240   -5.78076
      H1    15.03494   14.29566   -6.68422
       H    13.25932   15.82111   -5.63690
       O    12.56641   16.44514   -5.81022
      H1    12.21214   16.56349   -4.91485

