9
frame 5 | Written by MDAnalysis XYZWriter (release 2.4.3)
       H     1.21456   17.38110  -10.16670
       O     1.77974   16.71976  -10.54155
      H1     2.34505   16.47968   -9.73481
       H     0.20503   16.35047  -13.42838
       O     0.45520   15.70611  -12.76790
      H1     0.48069   16.27403  -11.97894
       H     4.51141   17.47787  -13.15542
       O     3.76457   17.88700  -12.70711
      H1     3.22798   17.17906  -12.27053

