9
frame 6 | Written by MDAnalysis XYZWriter (release 2.4.3)
       H    -6.04559  -17.47590    6.10392
       O    -5.33354  -17.37136    5.51081
      H1    -5.65411  -17.44229    4.62286
       H    -3.70856  -18.72314    7.97620
       O    -3.41894  -18.39295    8.88806
      H1    -2.44894  -18.41267    8.93949
       H    -4.66818  -18.72927    5.99079
       O    -4.14756  -19.43916    6.46694
      H1    -3.32838  -19.45397    5.96306

