9
frame 6 | Written by MDAnalysis XYZWriter (release 2.4.3)
       H     5.25402  -12.51501    9.87049
       O     4.86188  -13.32713    9.52681
      H1     5.50236  -13.99284    9.75863
       H     5.34077  -12.05957    6.63836
       O     4.55178  -12.50808    6.88265
      H1     4.62659  -12.85884    7.76687
       H     2.64622  -13.00346   12.00772
       O     3.62568  -13.06221   11.95544
      H1     3.86240  -13.42598   11.09448

