9
frame 6 | Written by MDAnalysis XYZWriter (release 2.4.3)
       H     6.17210   -5.62653    1.96544
       O     7.00953   -5.17177    1.78016
      H1     6.81887   -4.32583    1.41918
       H     7.50123   -5.36405    3.36988
       O     7.86166   -5.49704    4.31843
      H1     8.47487   -6.25160    4.25399
       H     9.99974   -6.91976    1.16426
       O     9.28195   -6.83801    1.79336
      H1     8.58370   -6.29602    1.35207

