9
frame 6 | Written by MDAnalysis XYZWriter (release 2.4.3)
       H    -6.65467    5.29118   18.34534
       O    -7.17956    5.04813   19.08274
      H1    -7.00603    4.07273   19.22929
       H    -5.97108    5.33166   15.62850
       O    -5.55016    5.59320   16.44652
      H1    -4.69582    5.74309   16.12586
       H    -8.43948    6.28622   19.17475
       O    -9.12462    6.99439   19.28952
      H1    -9.34479    7.06535   18.32366

