9
frame 6 | Written by MDAnalysis XYZWriter (release 2.4.3)
       H    19.23907   14.17498   14.14334
       O    18.69644   13.46789   14.56236
      H1    18.90916   12.74573   13.92528
       H    18.08145   14.33718   16.14771
       O    18.05783   15.15463   16.72117
      H1    17.19938   14.96475   17.14890
       H    17.06192   16.01249   12.77850
       O    17.07075   15.13887   12.43393
      H1    17.67981   14.63544   13.03547

