9
frame 6 | Written by MDAnalysis XYZWriter (release 2.4.3)
       H     8.91097   -9.60281    7.03796
       O     8.27168   -9.54006    6.27636
      H1     8.74006   -8.99144    5.65304
       H     6.62413   -7.03084    6.75193
       O     6.94318   -7.48118    7.60191
      H1     7.51672   -8.18332    7.22350
       H    10.42527   -7.63475    5.01516
       O     9.72152   -7.87188    4.42820
      H1    10.05102   -7.54060    3.62052

