9
frame 6 | Written by MDAnalysis XYZWriter (release 2.4.3)
       H    -1.88040  -18.09283   17.36665
       O    -1.46928  -18.89869   16.99314
      H1    -0.62683  -18.96186   17.46328
       H    -4.16446  -19.66009   17.20813
       O    -4.57603  -19.50913   18.05017
      H1    -4.02178  -20.00917   18.69187
       H    -6.09820  -18.07277   18.77167
       O    -6.71977  -17.70996   19.40287
      H1    -7.53187  -17.48127   18.95281

