9
frame 6 | Written by MDAnalysis XYZWriter (release 2.4.3)
       H     3.13699   16.44329   -8.36229
       O     3.26914   15.83528   -9.12216
      H1     3.72204   14.96543   -8.87539
       H     4.08240   17.84872   -5.43505
       O     4.42989   18.39891   -4.70241
      H1     4.45484   17.76694   -3.96253
       H     2.11269   17.70542   -7.42168
       O     3.06076   17.88683   -7.24753
      H1     3.15332   18.79160   -7.57624

