9
frame 6 | Written by MDAnalysis XYZWriter (release 2.4.3)
       H    15.57151  -16.15074   -6.44673
       O    15.88858  -16.87205   -5.89502
      H1    16.04392  -17.59439   -6.53311
       H    14.13042  -14.33730   -5.68666
       O    14.48036  -14.64504   -6.56067
      H1    15.39122  -14.28930   -6.62856
       H    13.17561  -13.54416   -7.44014
       O    12.48338  -13.07963   -8.05128
      H1    12.78578  -13.47696   -8.91843

