9
frame 0 | Written by MDAnalysis XYZWriter (release 2.4.3)
       H     9.14969   -9.56768    5.41566
       O     8.25996   -9.66045    5.11975
      H1     8.46732   -9.87410    4.19754
       H     7.31561   -6.51381    5.05579
       O     8.09214   -6.73572    5.57890
      H1     8.02045   -7.68349    5.44399
       H     9.58693   -6.31345    4.75340
       O    10.25422   -5.71660    4.36346
      H1    10.67385   -6.19298    3.62111

