9
frame 6 | Written by MDAnalysis XYZWriter (release 2.4.3)
       H   -10.08632    6.40611    5.52063
       O    -9.43260    6.66971    4.87903
      H1    -8.58204    6.45965    5.32374
       H    -8.36818    9.49748    3.84746
       O    -9.26813    9.16408    3.82559
      H1    -9.11399    8.21031    3.95405
       H    -9.76120    5.02134    3.59904
       O   -10.14476    4.39942    2.91978
      H1    -9.39271    3.78361    2.86487

