9
frame 6 | Written by MDAnalysis XYZWriter (release 2.4.3)
       H    16.83880  -17.75132    9.07595
       O    17.05235  -18.64880    9.46517
      H1    16.65954  -18.72853   10.36432
       H    17.19007  -16.08723    6.62110
       O    17.54560  -15.96786    5.75308
      H1    18.01367  -16.79940    5.67391
       H    16.35787  -15.91536    8.97091
       O    16.40891  -16.49342    8.24320
      H1    15.52974  -16.86158    8.06381

