9
frame 6 | Written by MDAnalysis XYZWriter (release 2.4.3)
       H    -1.32844   -4.40381    0.95496
       O    -1.25785   -3.94710    0.07702
      H1    -0.62136   -4.54798   -0.33708
       H     1.40118   -4.97237   -1.19410
       O     0.78835   -5.71187   -1.04724
      H1     0.93258   -6.31744   -1.82215
       H     2.85015   -8.16244    0.24003
       O     2.89774   -7.22252    0.46058
      H1     2.00411   -6.96996    0.67205

