9
frame 6 | Written by MDAnalysis XYZWriter (release 2.4.3)
       H    16.10267  -13.25244  -16.20123
       O    15.67395  -13.53327  -15.38906
      H1    16.19662  -14.25579  -15.07269
       H    12.88708  -12.76593  -13.38428
       O    13.50157  -13.47945  -13.49429
      H1    14.06678  -13.20020  -14.22393
       H    14.61219  -14.59862  -16.33690
       O    14.15062  -15.32843  -16.79603
      H1    14.43180  -16.10950  -16.23259

