9
frame 6 | Written by MDAnalysis XYZWriter (release 2.4.3)
       H    17.27018    6.55516   10.91008
       O    16.40522    6.60317   10.52058
      H1    15.97653    5.88206   10.94690
       H    19.20095    6.64898    9.89239
       O    19.17816    6.28111   10.77820
      H1    19.46474    5.33851   10.75290
       H    19.63923    2.70868    9.74423
       O    19.77451    3.42740    9.08164
      H1    19.41814    3.08740    8.19372

