9
frame 7 | Written by MDAnalysis XYZWriter (release 2.4.3)
       H   -13.16753    2.66713   -6.87932
       O   -12.85839    2.21823   -6.04189
      H1   -11.98063    1.90254   -6.39983
       H    -9.43813    3.02711  -10.53983
       O    -9.14378    3.02056   -9.62843
      H1    -9.23535    2.11022   -9.31433
       H   -10.57108    0.53582   -7.67614
       O   -10.48895    1.34377   -7.17537
      H1   -10.15722    1.07575   -6.34845

