9
frame 7 | Written by MDAnalysis XYZWriter (release 2.4.3)
       H     3.69272   12.06329    7.16954
       O     2.74346   12.06589    7.35748
      H1     2.83099   11.76250    8.31641
       H     4.96989   10.83766    5.90332
       O     5.16720   11.78706    6.18335
      H1     5.92321   11.79198    6.74423
       H     7.89617   11.68095    8.14584
       O     7.00767   11.35987    8.29482
      H1     6.76842   11.49668    9.20984

