9
frame 0 | Written by MDAnalysis XYZWriter (release 2.4.3)
       H    17.16813   12.68455   -1.41842
       O    16.64005   13.27545   -1.97607
      H1    17.11136   14.16843   -1.96762
       H    16.10107   16.68979   -4.95340
       O    15.73175   16.75073   -4.11358
      H1    15.15754   15.94261   -4.13011
       H    16.83254   16.34375   -2.55843
       O    17.52625   15.86398   -2.02273
      H1    18.27272   15.85089   -2.64913

