9
frame 7 | Written by MDAnalysis XYZWriter (release 2.4.3)
       H   -19.14757   18.37516   17.07397
       O   -18.56392   18.55765   16.30026
      H1   -18.70791   17.79521   15.67891
       H   -18.93862   15.66949   17.72517
       O   -18.19539   15.96813   18.32913
      H1   -18.19865   16.89337   18.26016
       H   -16.22645   14.75300   19.51735
       O   -16.85133   14.08961   19.75758
      H1   -17.65354   14.39592   19.27500

