9
frame 7 | Written by MDAnalysis XYZWriter (release 2.4.3)
       H    10.45633  -10.21430   15.74355
       O    10.29187   -9.92979   16.67927
      H1    10.57948  -10.66269   17.24684
       H    11.09545   -8.05343   17.45181
       O    11.28540   -7.27184   17.97261
      H1    11.04885   -7.40572   18.90119
       H     7.48042   -8.29171   17.25526
       O     7.69071   -9.09010   16.79402
      H1     8.55953   -9.45121   17.02430

