9
frame 7 | Written by MDAnalysis XYZWriter (release 2.4.3)
       H    -5.98425  -16.27773   18.06161
       O    -5.56398  -15.91184   17.28104
      H1    -6.11305  -15.13919   17.06425
       H    -7.89012  -13.27423   16.14888
       O    -7.00337  -13.71740   16.30673
      H1    -6.37237  -13.83663   15.55158
       H    -6.16240  -12.09203   18.82280
       O    -6.05240  -11.73992   17.88854
      H1    -6.28894  -12.47995   17.29184

