9
frame 7 | Written by MDAnalysis XYZWriter (release 2.4.3)
       H    -1.01739    4.76279  -13.72775
       O    -1.77765    5.30978  -13.54756
      H1    -1.91931    5.38404  -12.61837
       H    -3.50936    6.80943  -15.56265
       O    -3.81037    6.04823  -15.03437
      H1    -2.99805    5.77220  -14.51786
       H    -1.07713    7.52902  -12.78269
       O    -1.38914    8.45823  -12.96821
      H1    -1.21308    8.90297  -12.11446

