9
frame 7 | Written by MDAnalysis XYZWriter (release 2.4.3)
       H   -18.90594   17.18353   -5.50202
       O   -18.36509   17.07715   -6.29228
      H1   -17.80129   16.30227   -6.15002
       H   -18.05813   17.22804   -9.31497
       O   -18.87606   16.76188   -9.09268
      H1   -18.91550   16.81232   -8.12485
       H   -15.77067   15.05750   -6.48652
       O   -16.72684   14.80081   -6.58845
      H1   -16.87956   14.05958   -6.04534

