9
frame 7 | Written by MDAnalysis XYZWriter (release 2.4.3)
       H     8.85196   13.48399  -12.01382
       O     8.39274   13.90910  -12.72539
      H1     7.52918   13.41652  -12.73292
       H    10.10522   12.34045  -10.24906
       O    10.26996   12.96122  -10.95193
      H1    10.47469   12.36551  -11.72575
       H    11.03213   10.85976  -13.73399
       O    10.29782   11.13778  -13.17089
      H1    10.13812   10.28049  -12.77531

