9
frame 7 | Written by MDAnalysis XYZWriter (release 2.4.3)
       H   -16.04628   -0.63329  -18.98908
       O   -15.26207   -1.08840  -18.67710
      H1   -15.08362   -0.90335  -17.70827
       H   -13.60635    1.73162  -18.98576
       O   -13.41189    0.86699  -19.27741
      H1   -13.94514    0.27588  -18.69658
       H   -14.82747    3.42647  -19.16578
       O   -13.96978    3.36791  -18.88546
      H1   -13.43950    3.99018  -19.41980

