9
frame 7 | Written by MDAnalysis XYZWriter (release 2.4.3)
       H     8.48041  -11.96847   -0.49531
       O     7.67622  -11.47837   -0.69237
      H1     7.92787  -10.96546   -1.45048
       H     6.91016  -14.28722    0.23644
       O     6.13927  -13.80113    0.32578
      H1     6.26580  -12.94041   -0.17465
       H     4.12159  -15.80544   -0.69577
       O     4.68410  -15.34344   -1.33313
      H1     5.15438  -14.63580   -0.82979

