9
frame 7 | Written by MDAnalysis XYZWriter (release 2.4.3)
       H    -9.44819    8.92807  -16.80850
       O    -8.91242    9.70000  -16.68504
      H1    -8.50200   10.01433  -17.53544
       H   -11.27240    7.47479  -16.31351
       O   -10.57321    7.67686  -17.04366
      H1   -11.08864    8.28610  -17.62773
       H   -12.63600   10.14466  -18.79514
       O   -11.96405   10.12680  -18.06942
      H1   -12.48824   10.18885  -17.27625

