9
frame 7 | Written by MDAnalysis XYZWriter (release 2.4.3)
       H    -2.78124   -8.69183   13.21593
       O    -1.89668   -8.28452   12.93391
      H1    -2.12063   -7.89880   11.97809
       H    -4.94896   -7.51439   10.97844
       O    -5.30296   -7.09488   10.23188
      H1    -4.74406   -7.47820    9.52838
       H    -5.35837   -8.97251   12.65419
       O    -4.67929   -8.31368   12.45999
      H1    -4.65925   -7.71980   13.17560

