9
frame 7 | Written by MDAnalysis XYZWriter (release 2.4.3)
       H   -19.06797  -13.40709    3.26965
       O   -19.39390  -12.62648    2.83144
      H1   -18.82041  -11.87646    3.15429
       H   -18.35531  -14.58990    5.69457
       O   -18.86824  -14.18748    6.44945
      H1   -19.23079  -15.00014    6.91245
       H   -17.96968  -15.92066    4.23165
       O   -18.12094  -14.96625    4.03177
      H1   -17.26073  -14.56137    3.70803

