9
frame 7 | Written by MDAnalysis XYZWriter (release 2.4.3)
       H   -10.68211   17.37912   -9.66943
       O   -10.42478   17.23407  -10.56397
      H1    -9.48891   17.26449  -10.51957
       H    -9.74423   16.56253   -7.03074
       O   -10.42689   16.52404   -7.66734
      H1   -11.10490   17.13179   -7.33065
       H   -11.56398   14.88946  -11.96433
       O   -11.42235   14.69706  -11.02969
      H1   -11.07353   15.50778  -10.67231

