9
frame 7 | Written by MDAnalysis XYZWriter (release 2.4.3)
       H    -3.46583   16.38091    8.09826
       O    -2.62364   16.32536    8.53206
      H1    -2.26170   15.38269    8.44265
       H    -1.88112   13.75286    7.01237
       O    -1.19493   13.70331    7.71151
      H1    -0.37120   13.97798    7.25259
       H    -4.06416   14.40536    6.24983
       O    -3.36044   13.78863    5.97428
      H1    -3.04829   14.08845    5.15831

