9
frame 0 | Written by MDAnalysis XYZWriter (release 2.4.3)
       H    10.58294   -6.98257  -15.89416
       O    10.47452   -7.33262  -16.79678
      H1    10.41920   -6.55083  -17.35450
       H    11.67139   -8.55528  -16.95175
       O    12.31828   -9.29802  -17.05953
      H1    12.57472   -9.23254  -18.00150
       H     7.53236   -9.18177  -17.19311
       O     8.36006   -9.52615  -16.87651
      H1     8.93024   -8.75685  -16.91004

