9
frame 8 | Written by MDAnalysis XYZWriter (release 2.4.3)
       H    -5.14955    6.49433   -7.32589
       O    -5.21586    5.64359   -6.82081
      H1    -6.05951    5.69761   -6.44169
       H    -7.80868    6.82212   -8.06303
       O    -7.89388    6.61900   -7.13002
      H1    -8.60620    6.02950   -6.95478
       H    -6.71622    3.09812   -8.63749
       O    -5.76641    3.26215   -8.43713
      H1    -5.81851    4.03895   -7.87123

