9
frame 8 | Written by MDAnalysis XYZWriter (release 2.4.3)
       H    14.67505   -1.32907  -15.22740
       O    14.25268   -0.58795  -14.75611
      H1    15.00313    0.02823  -14.41456
       H    17.14721   -0.01090  -13.92536
       O    16.82169    0.65479  -14.51639
      H1    17.36571    0.64315  -15.29202
       H    15.22058    3.68723  -14.48885
       O    15.46028    3.06699  -13.81736
      H1    15.66843    2.25863  -14.16125

