9
frame 8 | Written by MDAnalysis XYZWriter (release 2.4.3)
       H   -13.22645   17.85797   -0.73354
       O   -13.31051   18.75119   -0.35140
      H1   -12.51394   19.27148   -0.50473
       H   -12.28920   17.87371    1.37988
       O   -11.86839   18.25862    2.18111
      H1   -11.25243   17.57419    2.57254
       H   -16.17725   18.28164   -0.38458
       O   -16.09226   18.72800   -1.19635
      H1   -15.19764   18.96217   -1.29978

