9
frame 0 | Written by MDAnalysis XYZWriter (release 2.4.3)
       H   -17.31041    5.75332   19.27739
       O   -17.87124    6.25192   19.84765
      H1   -17.62776    7.21563   19.72425
       H   -15.26793    4.84289   17.76464
       O   -15.42617    5.31725   18.51204
      H1   -14.79441    4.96566   19.13401
       H   -15.02673    8.79122   17.85093
       O   -15.62690    8.17194   18.31735
      H1   -15.16455    7.34361   18.39458

