9
frame 8 | Written by MDAnalysis XYZWriter (release 2.4.3)
       H    -1.87125    1.33264  -19.71358
       O    -2.28683    0.66043  -19.16843
      H1    -2.73847    1.21738  -18.54981
       H    -0.65323   -0.07542  -18.97729
       O     0.17628   -0.61694  -19.04971
      H1    -0.04342   -1.43107  -18.62107
       H    -1.88225    0.35865  -17.00514
       O    -2.54485    0.20524  -16.29209
      H1    -2.19047    0.63612  -15.48100

