9
frame 8 | Written by MDAnalysis XYZWriter (release 2.4.3)
       H   -18.66361    6.05046   15.38281
       O   -17.79029    5.66659   15.60954
      H1   -17.41861    5.00752   14.99849
       H   -16.31306    6.81829   15.96063
       O   -15.39938    7.18430   16.02385
      H1   -14.94572    7.03633   15.18552
       H   -15.99670    9.79900   17.85282
       O   -16.53420    9.15217   17.46538
      H1   -16.00186    8.63881   16.83575

