9
frame 8 | Written by MDAnalysis XYZWriter (release 2.4.3)
       H   -13.26355   -8.37401   -9.61987
       O   -13.89889   -7.64268   -9.40458
      H1   -13.62315   -6.92559   -9.99089
       H   -15.05062   -7.39150  -10.60617
       O   -15.61513   -6.74332  -11.12980
      H1   -16.47556   -7.22136  -11.22640
       H   -11.54710   -9.81500  -10.05716
       O   -11.75198   -9.64419   -9.12054
      H1   -12.28327  -10.43176   -8.81987

