9
frame 8 | Written by MDAnalysis XYZWriter (release 2.4.3)
       H    18.81433   10.24337    0.24837
       O    19.12633    9.40925    0.57422
      H1    18.52015    8.70846    0.41832
       H    19.57556   12.35124   -0.24671
       O    18.65591   12.00733   -0.26315
      H1    18.04096   12.39446    0.31058
       H    16.96327    6.86353    1.86867
       O    17.36827    7.37285    1.13114
      H1    17.89648    6.70214    0.61288

