9
frame 8 | Written by MDAnalysis XYZWriter (release 2.4.3)
       H     3.74602   12.07974    6.95433
       O     2.84761   12.16990    7.36128
      H1     3.00308   11.93558    8.28378
       H     5.57422   13.76869   10.61934
       O     5.30017   12.84268   10.84163
      H1     4.46711   12.74354   10.31845
       H     1.87368   11.65644    9.80690
       O     2.81060   11.58923    9.83586
      H1     3.12609   10.91756   10.43139

