9
frame 8 | Written by MDAnalysis XYZWriter (release 2.4.3)
       H     4.25029   -8.16740    5.57137
       O     3.90928   -7.42181    6.13375
      H1     4.41907   -6.63625    5.72832
       H     5.29069   -7.52059    7.45172
       O     6.04489   -7.62871    8.06009
      H1     6.77118   -8.08592    7.59205
       H     3.02297   -7.87804    7.64891
       O     2.81438   -8.43474    8.38621
      H1     1.89786   -8.31575    8.73517

