9
frame 8 | Written by MDAnalysis XYZWriter (release 2.4.3)
       H   -13.84295   14.78380   12.96116
       O   -14.65215   15.21089   12.76996
      H1   -15.20538   14.96876   13.56458
       H   -14.18675   16.98382   12.69446
       O   -14.21499   17.93145   12.47317
      H1   -13.68071   18.32898   13.17440
       H   -15.49496   14.04150   11.72799
       O   -16.30456   13.49170   11.43460
      H1   -16.38860   13.71894   10.49788

