9
frame 8 | Written by MDAnalysis XYZWriter (release 2.4.3)
       H    11.39237  -13.42244   -9.85608
       O    10.45695  -12.99973   -9.94541
      H1    10.07817  -13.73844  -10.47956
       H     9.94675  -15.52303  -11.90512
       O     9.42103  -15.16469  -11.16971
      H1     9.18116  -15.95050  -10.64533
       H    11.69125  -12.60206  -11.37702
       O    12.12599  -11.96863  -11.98226
      H1    12.17565  -12.44118  -12.83185

