9
frame 8 | Written by MDAnalysis XYZWriter (release 2.4.3)
       H    -2.69366   19.83321    3.31586
       O    -2.52707   18.96641    2.96414
      H1    -3.33769   18.72914    2.49067
       H    -0.78793   17.87005    4.28634
       O    -0.09950   17.35587    4.71201
      H1     0.64539   17.94218    4.60447
       H    -0.60260   18.74261    0.71777
       O    -1.46608   18.85880    0.29430
      H1    -2.00457   19.23620    1.04125

