9
frame 8 | Written by MDAnalysis XYZWriter (release 2.4.3)
       H   -16.58040    6.86535   10.16984
       O   -16.59763    7.32479   11.06278
      H1   -17.49911    7.76049   11.24841
       H   -19.48102    7.53485   12.19436
       O   -18.92738    8.29225   12.21307
      H1   -19.22605    8.72417   13.00024
       H   -18.81444   10.42959   10.04616
       O   -19.62433    9.98540   10.15981
      H1   -19.48181    9.42623   10.95665

