9
frame 8 | Written by MDAnalysis XYZWriter (release 2.4.3)
       H   -15.96795   -6.92648   -1.06192
       O   -15.56485   -6.08312   -0.76938
      H1   -14.63181   -6.06182   -1.12025
       H   -15.23882  -11.29280   -1.42562
       O   -15.02332  -10.35107   -1.43026
      H1   -14.60957  -10.30489   -0.54964
       H   -16.36027   -9.47280   -1.37054
       O   -17.13932   -8.86122   -1.31044
      H1   -17.68214   -9.14522   -0.55854

