9
frame 8 | Written by MDAnalysis XYZWriter (release 2.4.3)
       H    10.51890   11.09015   -7.82664
       O    10.90364   11.87626   -7.38833
      H1    10.54947   12.64748   -7.89486
       H    14.45193   12.05368   -7.86696
       O    13.71885   11.42132   -7.86266
      H1    12.96345   11.86857   -7.50339
       H     7.84487   11.65211   -8.82825
       O     8.52757   11.09692   -9.23180
      H1     8.86305   10.38416   -8.66236

