9
frame 8 | Written by MDAnalysis XYZWriter (release 2.4.3)
       H   -13.36282   14.17176  -13.64447
       O   -14.25071   13.95899  -13.32469
      H1   -14.60871   13.47873  -14.07568
       H   -15.77227   10.89485  -14.50524
       O   -16.02420   10.01952  -14.41224
      H1   -16.87344   10.05749  -13.99156
       H   -14.91666   12.75568  -16.25262
       O   -15.45356   12.60767  -15.43080
      H1   -16.40751   12.74541  -15.71315

