9
frame 9 | Written by MDAnalysis XYZWriter (release 2.4.3)
       H    18.82152  -12.23923    8.30186
       O    18.15151  -12.88869    8.44695
      H1    18.54042  -13.79792    8.26103
       H    18.88659  -16.31415    8.76868
       O    18.35274  -15.55544    8.36990
      H1    17.49447  -15.58499    8.81879
       H    15.71252  -15.91521   10.46396
       O    15.79474  -15.63212    9.58269
      H1    15.42066  -16.29237    9.00567

