9
frame 9 | Written by MDAnalysis XYZWriter (release 2.4.3)
       H   -15.45234  -19.18943  -11.04695
       O   -15.91562  -20.05861  -10.88992
      H1   -16.70886  -19.80645  -11.37673
       H   -13.89365  -17.86690  -11.21576
       O   -14.82987  -17.73480  -11.46437
      H1   -14.79615  -17.53578  -12.42662
       H   -15.05353  -17.67189  -14.55762
       O   -14.85507  -16.81850  -14.15174
      H1   -15.73829  -16.39848  -14.13785

