9
frame 9 | Written by MDAnalysis XYZWriter (release 2.4.3)
       H    15.51639   13.08392    4.86927
       O    16.34230   12.77203    4.42827
      H1    16.54104   11.92426    4.89205
       H    18.09095    9.97500    4.49617
       O    17.22171    9.98970    4.91162
      H1    16.89665    9.05997    4.81047
       H    19.19489   14.05494    5.81745
       O    18.59534   14.32918    5.04328
      H1    18.00093   13.54497    4.90455

