9
frame 9 | Written by MDAnalysis XYZWriter (release 2.4.3)
       H    -6.29973  -15.27444    6.35949
       O    -5.76642  -15.78455    5.65858
      H1    -6.31727  -16.25634    5.08999
       H    -7.38405  -17.98569    3.51371
       O    -6.56784  -17.44124    3.46484
      H1    -6.58852  -16.91299    2.67924
       H    -3.91266  -17.97671    2.20608
       O    -4.38851  -18.75076    2.45527
      H1    -5.12836  -18.48425    2.99916

