9
frame 9 | Written by MDAnalysis XYZWriter (release 2.4.3)
       H    -4.76678   -3.07210  -11.80925
       O    -4.11796   -3.55754  -11.29535
      H1    -3.26950   -3.19237  -11.56189
       H    -6.84144   -2.57367  -13.36285
       O    -5.91935   -2.32933  -13.17472
      H1    -6.04046   -1.51030  -12.64447
       H    -5.26536   -3.29351  -14.56916
       O    -5.43790   -3.96569  -15.36979
      H1    -4.64054   -3.89780  -15.90323

