9
frame 9 | Written by MDAnalysis XYZWriter (release 2.4.3)
       H   -13.05819   16.51398    9.43410
       O   -13.87175   16.86762    9.70206
      H1   -13.82508   16.93518   10.65531
       H   -14.26281   17.07945   12.64922
       O   -14.41969   18.00879   12.36148
      H1   -13.90919   18.59197   12.93884
       H   -15.87680   19.58567    9.66868
       O   -15.20371   19.74827   10.35643
      H1   -15.06394   18.91091   10.80338

