9
frame 9 | Written by MDAnalysis XYZWriter (release 2.4.3)
       H     1.18650  -18.83771  -15.89254
       O     2.03057  -18.95400  -15.49757
      H1     1.92578  -19.74503  -14.87431
       H     3.24464  -18.88698  -16.91890
       O     3.72821  -19.27016  -17.73589
      H1     4.51039  -19.75834  -17.39309
       H     1.99486  -17.81471  -14.14661
       O     2.04041  -17.14682  -13.45020
      H1     2.94980  -16.80903  -13.49580

