9
frame 9 | Written by MDAnalysis XYZWriter (release 2.4.3)
       H     2.66541    9.57071    5.72739
       O     3.40353    9.63261    6.36860
      H1     3.62689   10.55482    6.30671
       H    -0.07270    8.57498    2.95173
       O    -0.65000    9.04548    2.32834
      H1    -1.45575    8.51062    2.26821
       H     1.83200    8.70496    3.82429
       O     1.20252    9.02155    4.46611
      H1     0.89316    8.22936    4.90624

