9
frame 9 | Written by MDAnalysis XYZWriter (release 2.4.3)
       H    -0.97680    8.45914   -5.65054
       O    -1.30642    8.48624   -6.57142
      H1    -2.01626    9.09601   -6.72736
       H     0.86103    6.50613   -7.53771
       O     0.82245    7.45356   -7.81132
      H1     0.17994    7.81682   -7.18498
       H    -0.49743    7.84820   -8.91413
       O    -1.36063    8.19039   -9.31878
      H1    -1.81705    8.73479   -8.64261

