9
frame 9 | Written by MDAnalysis XYZWriter (release 2.4.3)
       H   -10.68911   -3.57795    7.34934
       O   -11.36760   -2.92580    6.96845
      H1   -11.10205   -2.67251    6.06934
       H   -11.74062   -6.43593    7.92542
       O   -11.47481   -6.37127    8.83548
      H1   -12.18663   -5.76825    9.15832
       H   -12.55746   -3.23058    9.88513
       O   -12.65522   -3.83954    9.14598
      H1   -12.09884   -3.47154    8.47452

