9
frame 9 | Written by MDAnalysis XYZWriter (release 2.4.3)
       H    18.58093   19.63000   16.63430
       O    19.38156   19.23880   16.23318
      H1    19.68546   18.42187   16.66089
       H    18.06214   19.39068   18.99371
       O    17.92580   18.55326   19.45973
      H1    17.17034   18.19103   18.99836
       H    16.53659   17.71301   16.56645
       O    16.12898   17.84700   17.46378
      H1    15.62875   17.05371   17.65214

