9
frame 9 | Written by MDAnalysis XYZWriter (release 2.4.3)
       H   -12.58879  -18.52201   -8.91692
       O   -12.47554  -18.62686   -7.93794
      H1   -13.38836  -18.52441   -7.59206
       H    -9.40405  -18.84109   -9.81337
       O    -9.00677  -19.27508   -9.03182
      H1    -9.61475  -20.04507   -8.87362
       H   -11.87780  -17.62433  -10.96461
       O   -12.40479  -18.39048  -10.66740
      H1   -11.89964  -19.11764  -11.03333

