9
frame 9 | Written by MDAnalysis XYZWriter (release 2.4.3)
       H    17.48812    4.71738    6.11123
       O    17.18439    3.88565    5.68701
      H1    16.55573    3.57038    6.28910
       H    13.97938    3.93582    5.40686
       O    14.07301    3.10772    5.91301
      H1    14.56670    3.50137    6.64329
       H    14.32164    1.99890    4.38367
       O    14.71652    1.59113    3.58892
      H1    13.88259    1.27767    3.11259

