9
frame 0 | Written by MDAnalysis XYZWriter (release 2.4.3)
       H   -16.42083   -7.34768   -6.09618
       O   -15.56875   -7.03425   -5.70385
      H1   -15.22932   -6.54847   -6.47268
       H   -14.46388   -9.81027   -6.74191
       O   -14.55211   -9.50106   -5.82022
      H1   -15.00711   -8.66238   -5.92474
       H   -18.40544   -8.99292   -6.18430
       O   -18.10585   -8.09127   -6.29927
      H1   -18.69151   -7.50622   -5.84561

