9
frame 9 | Written by MDAnalysis XYZWriter (release 2.4.3)
       H    -3.77745  -14.98780   -0.58084
       O    -4.01930  -14.85206   -1.52191
      H1    -3.18790  -14.65642   -1.98335
       H    -6.29106  -13.52271   -3.46011
       O    -6.51114  -14.15096   -2.76829
      H1    -5.65892  -14.28471   -2.23150
       H    -5.33060  -11.77034    0.47035
       O    -4.39493  -11.84348    0.13525
      H1    -4.36468  -12.55551   -0.48319

