9
frame 9 | Written by MDAnalysis XYZWriter (release 2.4.3)
       H     1.11953  -13.62263    8.03711
       O     1.59450  -13.10869    8.70985
      H1     2.04725  -12.25178    8.30631
       H     5.66125  -11.42560    6.43246
       O     4.90543  -11.30909    7.03839
      H1     5.19627  -11.52115    7.90951
       H     3.26722  -10.70059    7.35305
       O     2.38080  -10.65075    7.71965
      H1     2.23740   -9.80124    8.22627

