9
frame 10 | Written by MDAnalysis XYZWriter (release 2.4.3)
       H    17.15014    4.09417  -15.90869
       O    17.57188    3.63490  -15.14186
      H1    17.27232    2.67089  -15.23191
       H    17.56594    6.04270  -16.95686
       O    16.77481    5.47965  -16.79857
      H1    16.50427    5.26398  -17.73352
       H    15.73658    5.45234  -12.88316
       O    15.96526    4.49007  -12.91561
      H1    16.57435    4.41170  -13.61763

